132
energy: -196.943686632104 gnorm: 0.009860219368 xtb: 6.7.1 (edcfbbe)
C           -1.25289952609011        0.35489516690372        0.24068684128130
C           -1.18349544303987       -1.04376149377251        0.04913602884652
C            0.04293645789389       -1.69081281329171       -0.06673733215739
C            1.22983787928638       -0.96547306515084       -0.10289533516632
C            1.22167542518040        0.44653833278526       -0.10424504140565
C           -0.03286180232632        1.04397146798548        0.11639053935475
N           -0.06652344770387        2.39827816297686        0.20653292954872
N           -2.38822140293939       -1.72247622636584        0.01069594083115
N            2.46843466071445       -1.57397079244287       -0.19086697931337
C            1.01907054953375        3.22527052621060        0.13555350669569
C            0.60070024393227        4.56434473826208        0.28675391525365
C           -0.84542181151008        4.51882198292417        0.41156374917648
C           -1.19394875821694        3.15197955994906        0.38126944397774
C            2.33189597959956        2.81365395673080       -0.07482063484067
C            3.27338925358989        3.85046635910726        0.01437546481290
C            2.92077489077086        5.18453015927028        0.19214414713063
C            1.57086347301883        5.54589404403126        0.29905529528014
C           -1.86513652228837        5.44279719354744        0.52196428766220
C           -3.19350908422206        4.99900877630797        0.56839564589689
C           -3.47589303267610        3.63693849952293        0.55986411484050
C           -2.48293301418933        2.64584208441653        0.51766565818511
C           -4.29947322905819        6.04496252035276        0.64944433835080
C           -4.21290413859943        6.96866037620805       -0.57361792741216
C           -5.70240630523685        5.43118042078276        0.67824483544532
C           -4.11575114309883        6.86249327483035        1.93624210686731
C            2.83338548586586       -2.90720386441683       -0.00700983865354
C            4.11383119980620       -3.10108013167675       -0.45874377406808
C            4.59603981184388       -1.83233736587252       -0.92982674986980
C            3.54851160043654       -0.89686847153781       -0.70372677246211
C           -3.53027675116966       -1.16834023939224        0.54176636355556
C           -4.55142445351149       -2.15915214788566        0.54252044554767
C           -3.98017706825156       -3.32948301516193       -0.06847785383648
C           -2.67774182622439       -3.02694892344546       -0.38187582073226
C            5.78675507542615       -1.40373875759065       -1.45992925822805
C            5.90851660511763       -0.05396553735688       -1.84695425771224
C            4.83777832884042        0.86681378588901       -1.63046670631807
C            3.64980518728277        0.46504079067511       -0.94901958265256
C            7.08503415712455        0.40006354568451       -2.48218468302902
C            7.19332518758505        1.68238238170046       -2.93959371150583
C            6.11038384304255        2.56291453084748       -2.80420736299636
C            4.96698121458040        2.16300341456179       -2.16896631391508
C           -3.71027314127849        0.13787798500669        0.97517605592782
C           -4.95879611891002        0.39232862879780        1.61920147000110
C           -6.00906864963216       -0.57469301186366        1.59054199137188
C           -5.80195114856914       -1.84200574207584        1.01080466191429
C           -5.17909164531125        1.57733100170609        2.35043856313151
C           -6.38828741973610        1.84635101554576        2.93029052837098
C           -7.45033988005019        0.93713464877520        2.81441886134628
C           -7.25488366561663       -0.25234082152495        2.17338928846686
C           -4.68573282586674       -4.57523515581388       -0.34056824148497
C           -1.75543024835542       -3.90055567082648       -1.10304158473312
C           -1.59034001010172       -5.22531112200682       -0.70536212035844
C           -0.77341655991064       -6.07289005755164       -1.42792238647983
C           -0.09911117504542       -5.60887024920821       -2.54499457608188
C           -0.25675573183321       -4.29279188642837       -2.94828802522608
C           -1.08829529044518       -3.44613730887932       -2.24110807431432
C           -5.47639128328230       -5.16072728991512        0.64815895990182
C           -6.15188600254111       -6.33968226910017        0.40157363275526
C           -6.05419800576208       -6.95437863489756       -0.83612681265123
C           -5.27645454525136       -6.37761449987769       -1.82724810913161
C           -4.60023550413739       -5.19825212926314       -1.58493096438357
C            4.90416368101636       -4.33204465386768       -0.41318299559499
C            5.39571070834496       -4.89449734619503       -1.59244623864429
C            6.15254847768205       -6.05103994375554       -1.55175980802648
C            6.44106274036078       -6.65149900384399       -0.33377425257937
C            5.96300740793237       -6.09251656412752        0.84462053619108
C            5.19553655439901       -4.94396995759883        0.80665081834279
C            2.03527787324001       -3.89153910479158        0.71400163200375
C            1.37940884941688       -3.54730526188463        1.89708818804030
C            0.69273884684231       -4.50272757984411        2.61913542362461
C            0.66689036949656       -5.81868397998963        2.18599921126654
C            1.33018174706535       -6.17070776144593        1.02223844506060
C            2.00459011904178       -5.21711887986187        0.28468960679843
B            2.47676957106661        1.29666608833584       -0.38232874215372
B           -2.55629917781470        1.09506244143188        0.60038802483940
C            3.96586194469018        6.29172180879642        0.25327634304413
C            5.40087232578936        5.76934538391351        0.13671797717510
C            3.72396536191061        7.26728450427900       -0.90791355470262
C            3.83891363044151        7.03319370484392        1.59120702410343
H            0.07773269519063       -2.76288348786989       -0.13497060255317
H            4.31422583003864        3.58032378321437       -0.04396197538766
H            1.28446498818399        6.58075014005803        0.40865878457558
H           -1.63397060110144        6.49676191234137        0.55178975286969
H           -4.50111457702708        3.30941909336964        0.56846115190986
H           -5.00242037256148        7.71674957593471       -0.53594482170186
H           -3.25831386469472        7.48576684569350       -0.61785970016724
H           -4.32921957263950        6.39032040935224       -1.48823868356943
H           -6.44256478815190        6.22670657410554        0.73994280378787
H           -5.83263415873340        4.78435653019903        1.54259052388975
H           -5.89973927467016        4.85922672271401       -0.22546111793597
H           -4.17478973767193        6.21005108839156        2.80538111872709
H           -3.15332045529588        7.36673924116154        1.95537893754029
H           -4.89602221879933        7.61658411267683        2.01711417767651
H            6.61285541332219       -2.08473452353242       -1.60466149872310
H            7.89658887737087       -0.30132742040166       -2.61760078388283
H            8.09629446710104        2.01629626235372       -3.42923070876574
H            6.18297550372393        3.55880549080146       -3.21813885421959
H            4.12185751842988        2.82913056710545       -2.10452924767028
H           -6.61550882024748       -2.55097705172472        0.96326904733285
H           -4.35400025803036        2.25919665643417        2.48059162371937
H           -6.53190253882436        2.75778108305925        3.49336079854207
H           -8.40644000605797        1.17266351626547        3.25834912971975
H           -8.04928658752509       -0.98364851303644        2.11745941632830
H           -2.10219457537785       -5.58509637137511        0.17475895678541
H           -0.66014888164016       -7.10115484878310       -1.11981122900358
H            0.54677830431410       -6.26749894015238       -3.10648326949588
H            0.26316219253455       -3.92498404772450       -3.82067047833757
H           -1.22604320684745       -2.42383382527090       -2.56449111418088
H           -5.53256126057463       -4.68676663664947        1.61759831781281
H           -6.75745404493466       -6.78541300900002        1.17870871990168
H           -6.58267092925814       -7.87693208117097       -1.02492095646346
H           -5.20209740418821       -6.85055423899547       -2.79585424140171
H           -4.00567280154336       -4.74640471685664       -2.36695067487689
H            5.16746878317144       -4.42759352864814       -2.54315262274361
H            6.51953166788654       -6.48768258191454       -2.47327472752942
H            7.03870400571886       -7.55063919916528       -0.30182687508779
H            6.19200805710973       -6.55371570414259        1.79727930014191
H            4.82294787022857       -4.50512342720634        1.72462653976538
H            1.41595770886692       -2.52596390556283        2.24919712957754
H            0.18474160592941       -4.21975051966785        3.52989878707083
H            0.13704726339896       -6.56810049616959        2.75439217476556
H            1.32385443105382       -7.19759398585700        0.68788365912677
H            2.50666621968540       -5.48897312019586       -0.63108592952123
H            6.09337941790605        6.60818688733070        0.17702965399022
H            5.64249009243557        5.09592101275082        0.95593016510697
H            5.55721720659400        5.25078211830574       -0.80631949763438
H            4.46044707972150        8.06881085931119       -0.88532631838866
H            2.73462685166100        7.71446716209017       -0.85461057879948
H            3.81050677481908        6.74575491237194       -1.85986363330133
H            3.99851892103939        6.34463486793681        2.41873677098760
H            4.58211645756105        7.82564685241864        1.65363517977214
H            2.85583480203372        7.48151737121269        1.70780709990531
