132
energy: -196.938335624988 gnorm: 0.009208348772 xtb: 6.7.1 (edcfbbe)
C           -1.24007638008938        0.34111072789752        0.13425632033405
C           -1.16959928715435       -1.05380744327750       -0.07503086451591
C            0.05634369528120       -1.69621388729999       -0.21535742800605
C            1.24214868388223       -0.96823353964631       -0.22016610986996
C            1.23437061835939        0.44424243070833       -0.20154195304633
C           -0.02275659240199        1.03656265869269        0.01364838952955
N           -0.06323089174356        2.38870969366584        0.12604462790924
N           -2.37073811500528       -1.74094983101772       -0.08041663182512
N            2.48227211410977       -1.57556078055062       -0.27152333803984
C            1.02064760734341        3.22092172490264        0.07600919056214
C            0.59475208626653        4.55542854262815        0.24675652936495
C           -0.85201462124827        4.50219255527045        0.36325503708966
C           -1.19373439048140        3.13451889739155        0.31005183910712
C            2.33693166382127        2.81621654365827       -0.12613803588735
C            3.27169033389870        3.85835258563155       -0.01171732610495
C            2.91095398554752        5.18751729574307        0.18407536968106
C            1.55853384001996        5.54186333958066        0.28359114640865
C           -1.87588837593054        5.41921270143971        0.48752421454834
C           -3.20303600774861        4.96954187776719        0.52508835466454
C           -3.47902293180051        3.60664741935207        0.50065659458895
C           -2.48025841859047        2.62209188543295        0.44551817345551
C           -4.31197627802966        6.01129586697754        0.60861230900037
C           -4.23227276748045        6.92605461233926       -0.62188699333946
C           -5.71292088447691        5.39342134637556        0.64833477332089
C           -4.12524719458634        6.83882407681230        1.88850082708398
C            2.83696413909270       -2.91166342087463       -0.07475630517475
C            4.14487265354091       -3.09434690604207       -0.43667784364051
C            4.65491877053595       -1.81917431534898       -0.85862142860778
C            3.58762270996204       -0.89111820411521       -0.71373488413342
C           -3.48653349193129       -1.20337986406906        0.51834783613417
C           -4.48158583056606       -2.21564200035298        0.60220903252811
C           -3.92778725398444       -3.37826249797347       -0.02857529648521
C           -2.66096906275864       -3.05656073418494       -0.44275149847581
C            5.87600595289471       -1.38196951104247       -1.30923423824166
C            6.01273403200339       -0.03374726553740       -1.69317940350040
C            4.92066361530069        0.87828285131813       -1.56067891441107
C            3.69438447288614        0.47182507760863       -0.95421726408514
C            7.22902094593279        0.43412358982861       -2.24105630273534
C            7.35443233210597        1.71346994509360       -2.70055702187684
C            6.25120255339862        2.57950733402238       -2.66170215008826
C            5.07048074513433        2.16953481550277       -2.10681828355016
C           -3.66479035668452        0.10275003646638        0.95138682868609
C           -4.88058770059519        0.34214680009055        1.65902014362233
C           -5.90656046334557       -0.65058818219780        1.71639802336287
C           -5.70284185466316       -1.92699045433225        1.15920070765833
C           -5.08599469408387        1.54274433204794        2.36965429905638
C           -6.26777016975309        1.80471603151707        3.00474412812344
C           -7.31261248416742        0.86881325513559        2.97213544056431
C           -7.12499682914301       -0.33645316539354        2.35986802380682
C           -4.65462222528381       -4.63163937007691       -0.25611707028130
C           -1.80955265393704       -3.91303403679440       -1.26277272814015
C           -1.70875462532156       -5.27188006926928       -0.97242692237314
C           -0.97574361568220       -6.11053677149137       -1.79047690245903
C           -0.32432607837981       -5.60682980809392       -2.90273570267052
C           -0.42185209873184       -4.25728124450249       -3.20182086029238
C           -1.16554742439955       -3.41659358639123       -2.39744313755020
C           -4.95933467781305       -5.47263155654976        0.80813528428301
C           -5.65066672751074       -6.65002295272550        0.59000628488689
C           -6.05825383556219       -6.99072896576439       -0.69248049161740
C           -5.76448611866831       -6.15385576070495       -1.76020400395809
C           -5.05592735470582       -4.98592479649697       -1.54667434238647
C            4.95479673516434       -4.31486375939423       -0.33560326071385
C            4.84291408182133       -5.33665245616369       -1.27266048690803
C            5.62512384688714       -6.47266384109867       -1.16375548163724
C            6.53392222459861       -6.59396297608236       -0.12572473758325
C            6.66670770614062       -5.56991355659065        0.79965941564706
C            5.88434858424501       -4.43491616401097        0.69395962302933
C            1.97456450997248       -3.85957715823530        0.62924071198207
C            1.34706789699648       -3.46278382716396        1.81289736269400
C            0.53074088711209       -4.33815231327977        2.50171665232940
C            0.34401601698287       -5.62946272836843        2.03689228495497
C            0.99032827456713       -6.04192092441404        0.88425960205256
C            1.79599029728715       -5.16457880970895        0.18107650288757
B            2.49438913344021        1.30055202877090       -0.44167799507775
B           -2.53952855860791        1.07117725985870        0.52462213949428
C            3.94831367489229        6.30099949765060        0.27248468610184
C            5.38882460113982        5.78757918921175        0.19033609213849
C            3.72506933620892        7.27738229557289       -0.89216855630196
C            3.78710764195507        7.03918406806633        1.60954412064201
H            0.08643405530394       -2.76661897648242       -0.31092766816384
H            4.31506143355709        3.59715752034314       -0.06386446358103
H            1.26579639453191        6.57318832377080        0.40771615836846
H           -1.64904304722103        6.47332279211759        0.53533288983422
H           -4.50299484793810        3.27380935086642        0.50810228835443
H           -5.02406717855674        7.67153296938560       -0.58859866797225
H           -3.27905868865230        7.44522082121435       -0.67151509638470
H           -4.34786360618222        6.34001886016031       -1.53146416709271
H           -6.45450529386321        6.18752322418220        0.71003766385503
H           -5.83626665473942        4.75044203714630        1.51651627703180
H           -5.91455966514850        4.81684108869552       -0.25127698870901
H           -4.15525617620061        6.18992365816104        2.76174823685478
H           -3.17474911341756        7.36502780502830        1.88861707849387
H           -4.92074678966304        7.57569203942160        1.97858272255444
H            6.71505265610844       -2.05706105826616       -1.39772129924470
H            8.05909269748824       -0.25564642933889       -2.30685376664958
H            8.28930705115836        2.05713649120698       -3.11969292977882
H            6.33940133867240        3.57011872673297       -3.08500335192912
H            4.21070674178799        2.82033382358854       -2.11414769198961
H           -6.48979777060753       -2.66667398266515        1.19391466725833
H           -4.26760528080810        2.24155046805416        2.43104615332001
H           -6.40154394874122        2.73033058517230        3.54634675420436
H           -8.25012517980017        1.09761838508064        3.45731581507440
H           -7.90585008683446       -1.08417691848984        2.36959920819056
H           -2.20114964950501       -5.66453645369726       -0.09648819240498
H           -0.91516158050449       -7.16261487308611       -1.55611491113386
H            0.25230985544229       -6.26379479998267       -3.53701775228978
H            0.07700854565779       -3.86006837569702       -4.07396354277419
H           -1.25293903216434       -2.36938383429567       -2.64847190038675
H           -4.63913214966504       -5.20491893749447        1.80585198828002
H           -5.86546082578442       -7.30811594998373        1.41852526352276
H           -6.60379544188561       -7.90751413568326       -0.85997815060773
H           -6.09114644385900       -6.40975452423103       -2.75997693800955
H           -4.82114279611607       -4.33089914757718       -2.37699330918076
H            4.14954077662278       -5.22993471078035       -2.09611337164857
H            5.52806256831228       -7.26478925798838       -1.89380723215862
H            7.14284167535328       -7.48209457775789       -0.03950396250861
H            7.38292550186449       -5.65700588392900        1.60525345024948
H            5.98290571630355       -3.63273879128732        1.41320834868580
H            1.50089449375933       -2.46177433484682        2.19018608144028
H            0.03874781885323       -4.00872868002818        3.40553195855726
H           -0.29896681919421       -6.31266083626178        2.57236808320409
H            0.86101914595019       -7.05153016529753        0.52566022744432
H            2.27563177926588       -5.48989639182076       -0.72796036018302
H            6.07477950809171        6.63047549153225        0.25694093767963
H            5.61013901688952        5.10899952026779        1.01123372845002
H            5.57522266635952        5.27773898315145       -0.75183680463499
H            4.45499125926148        8.08361138357086       -0.85253754018763
H            2.73142528476143        7.71653686774976       -0.85844826882367
H            3.83461555332706        6.75785927375219       -1.84241970306688
H            3.90972226430202        6.34444859469159        2.43808328303900
H            4.53953615507326        7.82004997945260        1.69978636217411
H            2.80808243535343        7.50227720904053        1.69625567706647
