132
energy: -196.934941379136 gnorm: 0.003229838433 xtb: 6.7.1 (edcfbbe)
C           -1.25932361660577        0.33607881414240       -0.00641977670209
C           -1.18221239151616       -1.05827690929623       -0.20363455757508
C            0.04446684213338       -1.70230992801020       -0.33242819483610
C            1.23175485564863       -0.97631813034538       -0.33751267164399
C            1.21966217046415        0.43803559861534       -0.31373993701428
C           -0.04191995866874        1.03157113024345       -0.12049294336768
N           -0.09070835028494        2.38413794126257       -0.01151732431903
N           -2.37982947799926       -1.75013712026543       -0.18937297571087
N            2.47255626098982       -1.58595635137004       -0.36221508611078
C            0.99002783751133        3.21987607633124       -0.03336723193150
C            0.55743672554973        4.55347752877555        0.12519061651763
C           -0.89184314871158        4.49523926618164        0.20677141200017
C           -1.22720353891959        3.12560448171395        0.15469435039891
C            2.31243702379523        2.81414183283297       -0.18162855280025
C            3.24181703142658        3.85287211788965       -0.01623968990454
C            2.87497887085935        5.18169071374471        0.16736278874887
C            1.52037011004726        5.53933750690125        0.20318055834558
C           -1.92116497358009        5.40884994804036        0.30787248196283
C           -3.24667484143444        4.95422379735466        0.33435584283105
C           -3.51620523524682        3.58939539732443        0.33022338701783
C           -2.51251696221133        2.60926504433797        0.28949501657939
C           -4.35983142282808        5.99378386139773        0.38406311212413
C           -4.25618692631450        6.89612728799170       -0.85434115034534
C           -5.75946182865032        5.37249212085335        0.39946969406379
C           -4.20277387314385        6.83729286432958        1.65742011170226
C            2.82269501522735       -2.91863778820575       -0.14940169637612
C            4.17547205188239       -3.07428594756310       -0.29784103216308
C            4.71200287846776       -1.78579713448589       -0.65024390975251
C            3.61575552848754       -0.88129579077146       -0.65827535925315
C           -3.47052637903119       -1.22907750129874        0.46376525665622
C           -4.42404824946583       -2.26966189979644        0.62967458056233
C           -3.87436661970442       -3.43409191718523       -0.00791606259804
C           -2.65320465965224       -3.07977209881480       -0.52827211443591
C            5.97049554359194       -1.33112024511616       -0.95335424473187
C            6.13059974406382        0.01254099577418       -1.34444407183967
C            5.01479538691385        0.90358221182468       -1.35969190032224
C            3.73238755052054        0.48205596619225       -0.89351253726688
C            7.39539386459109        0.49261370973820       -1.75182165556845
C            7.55337140138141        1.76690939404487       -2.21575209906544
C            6.43839822969922        2.60976986109264       -2.32840076085776
C            5.20544861898804        2.18570281369640       -1.91446244699592
C           -3.65558130538858        0.08155798821747        0.88105505923950
C           -4.83093848682624        0.30269328544691        1.66063374951769
C           -5.80588101066564       -0.72876337520323        1.83070536419261
C           -5.60131572687472       -2.01144552864198        1.28706555458114
C           -5.03843765270367        1.52083809487101        2.33961554790920
C           -6.17059050240649        1.74969240527215        3.07163504560816
C           -7.16309667086568        0.76388435180852        3.17125760836439
C           -6.97414581600374       -0.44961827078751        2.57585908883220
C           -4.57444137033873       -4.72146423101499       -0.04775183883844
C           -1.89601281752269       -3.79506758720662       -1.54934637532505
C           -1.81082132733651       -5.18495064862902       -1.56644469203660
C           -1.18962348828454       -5.83825685711582       -2.61459181857310
C           -0.62301274159555       -5.12171168705413       -3.65355800308934
C           -0.70246981936637       -3.73910119061505       -3.64904227960954
C           -1.34210554299217       -3.08269743140274       -2.61806395675298
C           -4.13787169477181       -5.77994809325113        0.74568091914198
C           -4.82413564368488       -6.97991240412705        0.75143307020320
C           -5.95789300576811       -7.13411674266668       -0.02839982096993
C           -6.40674177917484       -6.08150879228414       -0.80787493022396
C           -5.72267250712991       -4.87941756408854       -0.81495607812172
C            4.99622192183205       -4.25545987673960       -0.03239432496702
C            4.75974658368088       -5.48784668041540       -0.63201713732133
C            5.56851254920379       -6.57321361435215       -0.34884364425094
C            6.62853971207982       -6.44482916192871        0.53189271779705
C            6.87841523823691       -5.22012988259092        1.12849329821655
C            6.07129285666643       -4.13467616355970        0.84812924775057
C            1.89276019349069       -3.94256094512916        0.34728026517804
C            1.43811390183206       -3.86813159028339        1.66272817752790
C            0.62110292377859       -4.85646361406555        2.17650418731413
C            0.26941677266421       -5.94328433161220        1.39441141633317
C            0.71941451194719       -6.02663834240006        0.08816571408458
C            1.51379616113055       -5.02435526140156       -0.43934361946780
B            2.48657315533107        1.29964247727337       -0.49024627172380
B           -2.56117030533574        1.05924910703030        0.39220985486824
C            3.91401484941612        6.28645107858622        0.31715699271762
C            5.35279401624337        5.76166885047968        0.30208007474739
C            3.75741287913333        7.27412142270437       -0.84811312339260
C            3.69159683022911        7.01288056948667        1.65105781044716
H            0.06754777203704       -2.77395257182829       -0.41433340157072
H            4.28515443721002        3.58888856098305       -0.01384889472235
H            1.22449105632463        6.57099257492576        0.31569457726741
H           -1.69885755182359        6.46424308208754        0.34786555459305
H           -4.53852602077368        3.25120822247906        0.34193527823430
H           -5.05723072715454        7.63259351517217       -0.85129412879836
H           -3.30837335108268        7.42674894214618       -0.88287557595758
H           -4.33946533140786        6.29954121911379       -1.76067364106363
H           -6.50493199153451        6.16497395276040        0.42931941012273
H           -5.90304725168231        4.74421769690464        1.27556374189991
H           -5.93649663633454        4.78030452952779       -0.49503903260095
H           -4.25776324638532        6.20087180404319        2.53823773422637
H           -3.25060905547951        7.35997483920217        1.67470414657069
H           -4.99741633687091        7.57844202795603        1.71677486535307
H            6.82639220254479       -1.99002451370498       -0.92966364057493
H            8.23775376587682       -0.18371168216929       -1.70712631111492
H            8.52553454068457        2.12180425628251       -2.52533248876527
H            6.55949951193218        3.59418563432117       -2.75824454710278
H            4.34152238260857        2.81699606486159       -2.04636401909384
H           -6.35358386522716       -2.77717924104144        1.41004442532874
H           -4.25964285280908        2.26479188380315        2.29954325530883
H           -6.30252088630498        2.68908373848016        3.58919890500484
H           -8.06014753413105        0.96288833918248        3.73975355475846
H           -7.71281323083333       -1.23197018899579        2.67979098990260
H           -2.23651637556245       -5.75679990927827       -0.75925074414645
H           -1.14816628016302       -6.91756072440239       -2.61908754512136
H           -0.13281583500352       -5.63499332104551       -4.46737454428301
H           -0.27462037718234       -3.16943465369528       -4.46109933843635
H           -1.42934934657661       -2.00741032034380       -2.64770804017167
H           -3.26438990506526       -5.64761942457059        1.36966182200088
H           -4.47690368662749       -7.79639111415322        1.36846255547613
H           -6.49424250157947       -8.07160675950339       -0.02215299082944
H           -7.29498322713530       -6.19731230357255       -1.41151289403692
H           -6.07100082416217       -4.05584851488097       -1.42173463617445
H            3.95114574458572       -5.59286586370419       -1.33682089052217
H            5.37311273023691       -7.52419280277864       -0.82321377523265
H            7.25945381812268       -7.29375863912270        0.75044849159716
H            7.70495368172528       -5.11227673287947        1.81632110889385
H            6.25787191029730       -3.18296102059427        1.32500681373400
H            1.72951513511268       -3.02765824047872        2.27771223599101
H            0.26643477381232       -4.78420589704855        3.19351823864188
H           -0.35149363828434       -6.72667288379838        1.80364867821512
H            0.45141206346911       -6.87363576159839       -0.52351183382629
H            1.81724613888168       -5.06495284302953       -1.47447246981810
H            6.04147757486781        6.59623430269046        0.42029753912401
H            5.52591388486412        5.06626110190806        1.11998230442774
H            5.58397033983254        5.26720482906057       -0.63831801484191
H            4.50510356888448        8.06124914846536       -0.77724368024585
H            2.77511297301646        7.73820862014815       -0.84689496649190
H            3.88862116215165        6.75773054969368       -1.79670776777433
H            3.77703133988626        6.31130857757638        2.47810903001682
H            4.43778106032897        7.79353714101857        1.78223353419944
H            2.70886736777660        7.47377149067750        1.69646894600638
