132
energy: -196.944145712989 gnorm: 0.008092535943 xtb: 6.7.1 (edcfbbe)
C           -1.24962967277444        0.35174306547045        0.24563649872046
C           -1.18106349011772       -1.04728980501024        0.06361623345801
C            0.04541034860003       -1.69563854833013       -0.04710158654500
C            1.23156542276061       -0.96855987830538       -0.09588125313078
C            1.22253168755585        0.44294231931933       -0.10612932917181
C           -0.03065567421926        1.04194004871669        0.11500297241910
N           -0.06817921804417        2.39609537520278        0.20041931238450
N           -2.38853483819003       -1.72425452218636        0.02762150919924
N            2.47128139470353       -1.57687638172944       -0.18623694601387
C            1.01708868803519        3.22494941249381        0.12525851854796
C            0.59706238263693        4.56407898388976        0.27188839459013
C           -0.85037801222003        4.51682642196207        0.39564188425466
C           -1.19590165379747        3.14901223086168        0.37010979298588
C            2.32913052820984        2.81155420051063       -0.08449458974072
C            3.27006873540408        3.84991353315846        0.00435424294867
C            2.91715278236693        5.18365520948179        0.18006577344340
C            1.56684678875841        5.54616618841937        0.28261447321166
C           -1.87238297159075        5.43791429590525        0.50640022698114
C           -3.20095576753044        4.99309735136098        0.55574092978477
C           -3.48036732817103        3.63087254953392        0.54902751411800
C           -2.48450901176379        2.64284192176097        0.50963129863601
C           -4.30763316350171        6.03715712775959        0.64415159119618
C           -4.22703671127492        6.96946746978203       -0.57293969361415
C           -5.71080747289901        5.42340995049772        0.67386492113216
C           -4.11991692731130        6.84805440055344        1.93485973111001
C            2.84095851119266       -2.90632380696016        0.00395470051730
C            4.11836263951186       -3.10067925993342       -0.45883853018401
C            4.59364756147890       -1.83698023506094       -0.94566282178618
C            3.54676732193152       -0.90116996857280       -0.71785540596120
C           -3.53196654368430       -1.16704686704363        0.55228186384154
C           -4.55518116366348       -2.15613236002468        0.54755384575848
C           -3.98380478865140       -3.32640539016001       -0.06006416990157
C           -2.67912443469592       -3.02641035079310       -0.36731653348482
C            5.78593703903537       -1.40391004638980       -1.47097204280257
C            5.90639206499568       -0.05578680142478       -1.85792097129102
C            4.83456528216887        0.86473652266146       -1.64363446466546
C            3.64709417058632        0.46143635676474       -0.96027853570142
C            7.08691341734462        0.40344465656246       -2.48576926067704
C            7.19528495586747        1.68523050745291       -2.94123773790247
C            6.11030210674538        2.56484780415360       -2.81051961011081
C            4.96570452534220        2.16215614654636       -2.17936163339635
C           -3.70562845103298        0.13965919643050        0.98554092741252
C           -4.95259094501417        0.39967061401371        1.62915349240853
C           -6.00539774520923       -0.56500013827327        1.59853073032933
C           -5.80406766633674       -1.83256289356457        1.01868791452201
C           -5.16609337400522        1.58608023752447        2.35966231104252
C           -6.37450862703677        1.86057297588036        2.93921683640708
C           -7.43906106273432        0.95473455017777        2.82246369641010
C           -7.24979779435245       -0.23604171871047        2.18187687478922
C           -4.69493563809712       -4.57151082527365       -0.33957042548544
C           -1.75694788280594       -3.89637302882464       -1.09523676256307
C           -1.59930595012976       -5.22426863463592       -0.70757751037396
C           -0.78769757857755       -6.07165004999998       -1.43851555781780
C           -0.11193256592677       -5.60302804855131       -2.55171566561365
C           -0.26483219746845       -4.28306626652889       -2.94411540825371
C           -1.08991321926186       -3.43597531773141       -2.23110889741790
C           -5.48774702505261       -5.15795369922009        0.64433897361139
C           -6.15534334501250       -6.34299073758327        0.39231402601572
C           -6.04055241289369       -6.95662418502923       -0.84344842198981
C           -5.26212447852924       -6.37498737028189       -1.83072584320136
C           -4.59591552614399       -5.18904250155365       -1.58451129682975
C            4.90684422575448       -4.33028552567874       -0.40863613180081
C            5.48666671249514       -4.83288221061253       -1.57321957727372
C            6.24190927006583       -5.99033230585468       -1.53240001071107
C            6.44413836201672       -6.64656417744342       -0.32638790556798
C            5.88150214714543       -6.14414805245762        0.83959919571833
C            5.11253843071199       -4.99674917767829        0.80007936135713
C            2.04382857625891       -3.89667237078508        0.71948182631938
C            1.41067059894014       -3.55764261339979        1.91691315020877
C            0.72475517080935       -4.51503283446673        2.63842249507445
C            0.68019959772652       -5.82535958474369        2.19095774403214
C            1.31538806974348       -6.17328986539616        1.01078961063473
C            1.98647034540448       -5.21543855541469        0.27442643957923
B            2.47634098023564        1.29455402373454       -0.39034911910066
B           -2.55278932054214        1.09292441530129        0.60322324437136
C            3.96528858168484        6.28891478474572        0.24850237648266
C            5.39968609982019        5.76380137666977        0.13536753984590
C            3.73075946164880        7.27272178857594       -0.90676051148931
C            3.83685606116501        7.02162092595524        1.59235833446448
H            0.07878792978720       -2.76865799030140       -0.10185788661283
H            4.31110648179018        3.58086240181162       -0.05150469723271
H            1.28009607881529        6.58137242749889        0.38891189882781
H           -1.64250421703189        6.49206399844934        0.53541012275766
H           -4.50503199089940        3.30104733551768        0.55916972816850
H           -5.01500705651711        7.71823590442719       -0.52356161046304
H           -3.27217528838216        7.48533898543550       -0.61905689032916
H           -4.35090988121310        6.39878704065272       -1.49103577496849
H           -6.44980287876365        6.21995660376231        0.73802574542821
H           -5.84136710946584        4.77496273306479        1.53680333857087
H           -5.91055549621343        4.85360692300124       -0.23069243754337
H           -4.18217290005714        6.19278423182233        2.80128331197303
H           -3.15525580173631        7.34706443272762        1.95506193016700
H           -4.89650749283134        7.60555085361900        2.01878360432985
H            6.61603915721556       -2.08120768618538       -1.61268452117498
H            7.90170792958910       -0.29535565498737       -2.61590627286238
H            8.10128304275480        2.02085606584636       -3.42487929485277
H            6.18171044184458        3.56117127632467       -3.22272303396417
H            4.11986799861174        2.82760250979072       -2.11456507547854
H           -6.62441586356052       -2.53380863432461        0.97217719059610
H           -4.33528630902712        2.26182493168173        2.48671975735824
H           -6.51342497120659        2.77346711658967        3.50078409631325
H           -8.39523104717571        1.19275916304536        3.26585634427311
H           -8.04973317507227       -0.96166517635885        2.12706265990596
H           -2.11527647731320       -5.58332463844908        0.16986496424921
H           -0.68494715063842       -7.10263638313340       -1.13498406839158
H            0.52865725820779       -6.26767263384743       -3.11223016264551
H            0.25535516976745       -3.91500373730068       -3.81642666909921
H           -1.22189743888708       -2.41206814310573       -2.55075199804446
H           -5.56497538716577       -4.69536719251274        1.61813713689495
H           -6.76208709592002       -6.79170902577010        1.16426290585280
H           -6.55728538863964       -7.88509979657312       -1.03940920015909
H           -5.17264742182593       -6.84624177442423       -2.79925024326556
H           -4.00197608451676       -4.73108449983368       -2.35900238177413
H            5.32351542752278       -4.31997611935565       -2.51325432624257
H            6.67435505417538       -6.38111538701165       -2.44509731955952
H            7.04001027988596       -7.54681951103411       -0.29487798110656
H            6.04709171718384       -6.64683017289159        1.78438527614646
H            4.67324361284253       -4.60342541907367        1.70776354891968
H            1.46324201396674       -2.54140023138962        2.28060511511958
H            0.23220776459888       -4.24040102457165        3.56000410833321
H            0.15311380594933       -6.57297104697518        2.76569865522092
H            1.29056416329728       -7.19558322289769        0.66337399065914
H            2.46632332211234       -5.48465709935493       -0.65461287855213
H            6.09309790358857        6.60137638521202        0.18036173595223
H            5.63636005442458        5.08876935055482        0.95436719781478
H            5.55929547871910        5.24697104629233       -0.80778078095065
H            4.45720439339378        8.08088789667055       -0.86402864173980
H            2.73684156881945        7.70775681982260       -0.86538006948797
H            3.83885730145297        6.76187953739460       -1.86074801413645
H            3.99882151303082        6.32670151357426        2.41379536914089
H            4.57958290662598        7.81392938138534        1.65969500076183
H            2.85353475753129        7.46693330749865        1.71252832758339
