132
energy: -196.944642637755 gnorm: 0.001331792654 xtb: 6.7.1 (edcfbbe)
C           -1.24753452976933        0.35042945403500        0.25016052777669
C           -1.17423042802631       -1.04916080036169        0.07074419948770
C            0.05322933946505       -1.69577396434403       -0.04281728078854
C            1.23783961387933       -0.96752122519412       -0.09715640199328
C            1.22403860184501        0.44448799811197       -0.11286455855936
C           -0.02992124946351        1.04155366469542        0.11163698324825
N           -0.06857429451477        2.39609809173375        0.19210194974837
N           -2.37778077458787       -1.73074959178241        0.04035874025711
N            2.47917735425471       -1.57291722363557       -0.18588980876190
C            1.01505091638601        3.22586401011231        0.11037819888947
C            0.59517772557390        4.56420651803427        0.26151408119968
C           -0.85031888138252        4.51546328984996        0.39513171645128
C           -1.19635822352588        3.14767772331272        0.37109261408749
C            2.32645796102635        2.81546443797924       -0.10870461904557
C            3.26656378476340        3.85452134556226       -0.02605301568794
C            2.91345366060217        5.18716676019109        0.15911970790874
C            1.56347817381450        5.54770178464881        0.27015249276782
C           -1.86993706718566        5.43815799771372        0.51039440457245
C           -3.19802973225344        4.99368565956926        0.56337157174127
C           -3.47847764253470        3.63118170889233        0.56256789068185
C           -2.48406687456793        2.64093134815022        0.51907176673012
C           -4.30177346855046        6.04169444177753        0.64358789861554
C           -4.20784680882081        6.97040780850666       -0.57550664720638
C           -5.70652666147113        5.43198173840873        0.66376602194188
C           -4.11964055309442        6.85515155663122        1.93339398365341
C            2.85084322994923       -2.90012278253313        0.01180045858210
C            4.13730473397054       -3.09238405291362       -0.42924567850730
C            4.61263284851117       -1.82566263252699       -0.91468347163484
C            3.55698863758656       -0.89497465035710       -0.70776399245608
C           -3.52118474549493       -1.17601847266410        0.56778927478898
C           -4.54071541129480       -2.16862747984674        0.56833847568833
C           -3.96818748354079       -3.33775720399030       -0.04129919703619
C           -2.66532522502177       -3.03489999931661       -0.35250545697755
C            5.80615912253950       -1.38757774507870       -1.43251549097584
C            5.91701945176409       -0.04430213907480       -1.84157159004107
C            4.83623472832948        0.86934181696299       -1.64836612116352
C            3.64965320393870        0.46523683057916       -0.96561239563273
C            7.09453153532720        0.41197732700112       -2.47486432529698
C            7.19346358250226        1.68704173783469       -2.95258985729372
C            6.10112485294970        2.55962909246101       -2.83919756941173
C            4.95736104860082        2.15847464920239       -2.20554756154462
C           -3.70134956053268        0.13159908204491        0.99695652950932
C           -4.94958702772934        0.38580351688131        1.64193474342492
C           -5.99742170148242       -0.58425789285100        1.61707314677437
C           -5.79062562042005       -1.85182859102982        1.03895322383149
C           -5.17059045111211        1.57196427700010        2.37079178689920
C           -6.37824035151732        1.83835076559370        2.95531987718628
C           -7.43737950394547        0.92544461278936        2.84511435610811
C           -7.24190495753631       -0.26395322092761        2.20401804839433
C           -4.68421708641104       -4.57732978982048       -0.32485576028353
C           -1.75147612778852       -3.90556642614754       -1.08815225160497
C           -1.60493285113337       -5.23895809265962       -0.71374049346591
C           -0.81565716003964       -6.09026304651483       -1.46303914417518
C           -0.14967471479473       -5.62086505183804       -2.58251261292931
C           -0.28609233745891       -4.29464367240587       -2.95933573789147
C           -1.08992868719408       -3.44348619606297       -2.22652214654998
C           -5.47464059582962       -5.16888472921252        0.65829402513137
C           -6.16527384085580       -6.33703708158226        0.39478751776688
C           -6.07922330728347       -6.93103718619792       -0.85310874700566
C           -5.30014257058425       -6.34711844096288       -1.83854189248727
C           -4.61016796234400       -5.17856524856349       -1.58014780792615
C            4.92831202580946       -4.31838182762301       -0.37713367607941
C            5.62750107397828       -4.74160218307488       -1.50563921649696
C            6.38961201799903       -5.89442687810103       -1.46803154384103
C            6.46643174530473       -6.63995193309446       -0.30396365028952
C            5.77785272329623       -6.22438025082612        0.82463479589228
C            5.01735257468619       -5.07139291564255        0.79201787522698
C            2.04078153111034       -3.88864889536484        0.71726032449212
C            1.42816963867845       -3.56528829059652        1.92878183193414
C            0.73717700362575       -4.52668012291133        2.63950874574009
C            0.66425603921315       -5.82639777297427        2.16469134914502
C            1.27808001238421       -6.15675837487878        0.96854862244657
C            1.95486877928275       -5.19525579389706        0.24284119284531
B            2.47416727074378        1.29725986114044       -0.40623464512444
B           -2.55166904675371        1.08970252459501        0.61192219764909
C            3.95977867062588        6.29270789006158        0.23418195999974
C            5.39430977255387        5.76793202083105        0.12271056027590
C            3.72700044172198        7.28177953026774       -0.91699025073043
C            3.82554997401261        7.01876306083001        1.58053792302526
H            0.08693115555764       -2.76888177465961       -0.09674563033902
H            4.30732093633330        3.58684830712328       -0.09415596006933
H            1.27634382186192        6.58207703525943        0.38172662874472
H           -1.63890454033686        6.49204250547767        0.53900288645151
H           -4.50371516219791        3.30322165282388        0.57920535504667
H           -5.00474235265715        7.71074310561671       -0.54539094439843
H           -3.25816973553995        7.49735033544042       -0.60487938993807
H           -4.30628705862044        6.39474204204015       -1.49365287122119
H           -6.44467786678904        6.23026342731375        0.71471230672265
H           -5.84671005860333        4.79017119766513        1.53023536722225
H           -5.89771027762627        4.85610340218765       -0.23876056720015
H           -4.16132842969558        6.19828677132343        2.80004277892970
H           -3.16469288721532        7.37356653236407        1.94584712963271
H           -4.91015238685333        7.59730916279315        2.02438660129021
H            6.64676434144695       -2.05542031862663       -1.55173347077459
H            7.91421556063107       -0.28322463732556       -2.59296515328399
H            8.09702807852027        2.02145196033184       -3.44108978178354
H            6.16666018612049        3.54953039351862       -3.26800515900017
H            4.10536571430562        2.81743161782405       -2.15655749843631
H           -6.60531749229328       -2.55971563089741        0.99452260982820
H           -4.34579443949695        2.25536691640453        2.49444942525533
H           -6.52149586402176        2.75048029111518        3.51716209994891
H           -8.39268053160853        1.15702402352490        3.29307071624005
H           -8.03546254662599       -0.99647838112751        2.15208432879014
H           -2.11232076936241       -5.60109741376536        0.16775096431196
H           -0.72220818977519       -7.12562030249554       -1.17246642101207
H            0.47173314824862       -6.28675938716888       -3.16289072104549
H            0.22776757568118       -3.92444957690488       -3.83452028155306
H           -1.21242235064735       -2.41441613329953       -2.53358804370718
H           -5.52779263594788       -4.71700420130278        1.63817961517642
H           -6.77237634612330       -6.78822099809383        1.16679986773799
H           -6.61847142039589       -7.84421709152681       -1.05761851982434
H           -5.23373565327362       -6.80278606441665       -2.81588315481473
H           -4.01511633267229       -4.71870328076746       -2.35588260559341
H            5.55420222152664       -4.16901539733650       -2.42005092167880
H            6.92335820088694       -6.21436188279392       -2.35088338401191
H            7.06070655652323       -7.54143889140130       -0.27516589549910
H            5.83888568895658       -6.80007323575960        1.73651376747177
H            4.49199737856960       -4.74318550347436        1.67756166865862
H            1.50324824205740       -2.55758336130418        2.31239893167207
H            0.26381913941204       -4.26357779629127        3.57417854136745
H            0.13398283918469       -6.57948496600441        2.72836711766517
H            1.23275578940831       -7.17059658937540        0.60065351779404
H            2.42090194202773       -5.44991110517542       -0.69680694646933
H            6.08923143744782        6.60318992888002        0.18850096966140
H            5.62386855881513        5.07725376020024        0.93092142573876
H            5.55990934669196        5.26823686529729       -0.82891026805115
H            4.47616472769772        8.07059821778761       -0.89128232883942
H            2.74582486723124        7.74443505710070       -0.85355269854529
H            3.79969355244845        6.76790399831314       -1.87351276725265
H            3.95406339359677        6.31468666373744        2.40029512058833
H            4.58586994113827        7.79230013873290        1.66778335953957
H            2.85141110133338        7.48848254646709        1.68564930662850
