132
energy: -196.927658235335 gnorm: 0.007533142480 xtb: 6.7.1 (edcfbbe)
C           -1.29950173917742        0.35746067592365       -0.17215907282391
C           -1.21975445544914       -1.04475249333068       -0.29420532194402
C            0.01012971329567       -1.70433763990244       -0.30008375640750
C            1.20782840331138       -0.99128592113057       -0.30227834418639
C            1.19425920968188        0.42874111132828       -0.32781950743799
C           -0.07132593370034        1.03749353929373       -0.23225837186174
N           -0.12320850476759        2.39595963632941       -0.16955166400481
N           -2.42633093356145       -1.72732975332985       -0.31180473973021
N            2.45320494177286       -1.60903251409383       -0.25673924487662
C            0.95917599176809        3.22970906432015       -0.11163235842091
C            0.52835960457551        4.56629932058802        0.01795625060696
C           -0.92512547224032        4.51720218415566       -0.00489548847502
C           -1.26319802335899        3.14850330984720       -0.07746028566944
C            2.28520070424440        2.81435358535522       -0.15293911906214
C            3.20620360528619        3.84480880892601        0.09331951109865
C            2.83989901928042        5.17564999206681        0.26862096952985
C            1.48879007149318        5.54378235942436        0.19334385281461
C           -1.95082332906952        5.44103089105681        0.03643992335036
C           -3.28162855714256        5.00089642862417       -0.01357314286317
C           -3.55613845903323        3.63645797593177       -0.02871481060697
C           -2.55975574110035        2.64693919070125       -0.00883617364775
C           -4.39228116778021        6.04588766025724       -0.00863748270913
C           -4.20760827958146        7.00333461437472       -1.19511506544033
C           -5.79197911654603        5.43231626196783       -0.11695936176932
C           -4.32667725386689        6.84323382108766        1.30257948086891
C            2.82907420343116       -2.93063693024001       -0.00071015210861
C            4.19571491543464       -3.03901069863275        0.03681880627762
C            4.72936366070810       -1.74368026918710       -0.27266761570650
C            3.61280340030287       -0.87802377432868       -0.42780114306345
C           -3.50220030348967       -1.18552932663172        0.35158358627499
C           -4.42937417767015       -2.22770818054705        0.61597503151774
C           -3.90461549292187       -3.41525212386816       -0.00146393010839
C           -2.72581489559569       -3.06232004135303       -0.63190834694238
C            6.00333669512472       -1.27341133704752       -0.46699063444181
C            6.17581503258884        0.05646058000599       -0.89609655690551
C            5.04746456736745        0.91378366276260       -1.05205149967504
C            3.73745068563973        0.47748443173424       -0.69346566310916
C            7.46231016448789        0.54688591721835       -1.20699628172859
C            7.63215969683215        1.80198349678070       -1.71815679725127
C            6.51265892971576        2.60691910044833       -1.97309651447812
C            5.25621111193973        2.17254895549228       -1.64939094615381
C           -3.69087480226141        0.14336900727287        0.69957709706429
C           -4.84006246646235        0.39937394443015        1.50546408277487
C           -5.77360781172792       -0.63993789928520        1.80173871323661
C           -5.56483970454320       -1.95342932206299        1.33801846487969
C           -5.05480120320293        1.66308451699560        2.09112814674955
C           -6.15494680494830        1.91562126020441        2.86341635292563
C           -7.10320889992104        0.91030896070757        3.10086164138332
C           -6.90734736694255       -0.34040657976746        2.58938857919068
C           -4.53113099934174       -4.72194930526021        0.17434779743776
C           -2.09972294953918       -3.72374378207518       -1.76897758644117
C           -2.38835274460421       -5.05205380590129       -2.10198806553685
C           -1.87971997419426       -5.62565037645433       -3.25165717371677
C           -1.06339577750796       -4.90091962816627       -4.10565414801109
C           -0.80482926259792       -3.57188921958280       -3.81506911257433
C           -1.32835651352808       -2.98710838708774       -2.67867915204084
C           -3.78002265885261       -5.77530821095998        0.70421183445680
C           -4.37010310542197       -6.99542439025591        0.97043412395013
C           -5.72171867851980       -7.18547237990136        0.72429395542009
C           -6.47544757609924       -6.14540963054676        0.20631553548290
C           -5.88864917143582       -4.92155347522188       -0.06446725315842
C            5.01254850109493       -4.21832998500486        0.31211277417909
C            4.77057240035006       -5.44806100027603       -0.29546413903125
C            5.58989882754582       -6.53105364433751       -0.03601506137320
C            6.66102186320947       -6.41099192164119        0.83464289851100
C            6.90463147655288       -5.19479565431529        1.44941368782091
C            6.09088104176497       -4.10803406180095        1.18917449328656
C            1.97186272018772       -4.10534628722885        0.19832242645248
C            2.04762706968142       -4.79289627387211        1.40795313089487
C            1.37338562271945       -5.98904548342919        1.57557775043728
C            0.62970793144966       -6.51777481648260        0.53363459166629
C            0.56717918477420       -5.84974261846832       -0.68016267105587
C            1.23559933750868       -4.65193224986933       -0.85239554730328
B            2.46421222909627        1.29525572776833       -0.42772321282572
B           -2.61138786688354        1.10186251338814        0.14754739537727
C            3.87462090581591        6.25755038983775        0.55649790471897
C            5.30522288710099        5.71340168480882        0.62256912464451
C            3.82677740512644        7.32461462188751       -0.54620742125645
C            3.55657187225263        6.90813874773097        1.91110255006895
H            0.01346207892831       -2.77990753627529       -0.28831982731351
H            4.24391993485170        3.56895243123651        0.17167975986481
H            1.18774473657138        6.57543581460461        0.30066544721862
H           -1.71751995254306        6.49400956091643        0.09439334674161
H           -4.57993695230757        3.30250109684142       -0.07017733010607
H           -5.00485268078437        7.74404952368224       -1.20047453468336
H           -3.25900539045559        7.53017063483964       -1.14159446074741
H           -4.24135529902386        6.45495932516015       -2.13418017272517
H           -6.53331692292862        6.22946257029197       -0.12412001946613
H           -6.00747614027067        4.78345655063166        0.72874306929775
H           -5.90176288226063        4.86452695906483       -1.03817974214310
H           -4.45026510848819        6.18016694518173        2.15636141620320
H           -3.37652686926588        7.36003622769446        1.40709229558621
H           -5.12154615058933        7.58607280141678        1.32541620057036
H            6.86447502615721       -1.91365860635049       -0.34305503155619
H            8.30960748101031       -0.10623852882641       -1.05115037255133
H            8.62042276559902        2.16715617870115       -1.95622070107493
H            6.64765165242346        3.57187065301646       -2.44082477345525
H            4.39436147547984        2.77532438342614       -1.88824108089483
H           -6.28499829429463       -2.72382479405578        1.57164680176848
H           -4.30934588871217        2.42735600003759        1.94678279788075
H           -6.29213686052672        2.89213057110918        3.30622141060940
H           -7.97200416848435        1.12488988822333        3.70589172813482
H           -7.61207887666416       -1.13507944561429        2.79142132701077
H           -3.03026495158541       -5.64679029769279       -1.47203565649823
H           -2.12993645592253       -6.65242512673165       -3.48141669955716
H           -0.65379276609374       -5.35825285768882       -4.99389127960796
H           -0.20042114234562       -2.97546338345785       -4.48523832262843
H           -1.14868999268485       -1.93611965041467       -2.51677489847252
H           -2.72912976771509       -5.62431054824539        0.91372093164011
H           -3.77293219318417       -7.79958641574017        1.37725630553016
H           -6.18374525090518       -8.13765699713168        0.93861752189313
H           -7.53001173527313       -6.28587143658446        0.01366543566218
H           -6.48265732560101       -4.12037184574495       -0.48110381591727
H            3.94646323468655       -5.55293769447466       -0.98599401867049
H            5.39312926114114       -7.47564100171414       -0.52259242073660
H            7.30097766506151       -7.25852807986505        1.03259574552975
H            7.73380589884802       -5.09011632395264        2.13482682095947
H            6.28077840159930       -3.16593256025953        1.68337974870566
H            2.64671331481026       -4.38884473213704        2.21148636056217
H            1.44312708363964       -6.51488406239401        2.51748882836621
H            0.11046794918325       -7.45646597132961        0.65990956336215
H            0.00695169338980       -6.26661683920003       -1.50399139090293
H            1.20671310803754       -4.14965480381465       -1.80999800436845
H            5.99133524887244        6.53159548212023        0.83363763359391
H            5.40988408022858        4.97697308155825        1.41592203871705
H            5.60128260924512        5.26181055438775       -0.32122065896233
H            4.57638489409811        8.08949685688675       -0.35401294105741
H            2.85490464336215        7.80820797724925       -0.59240537680062
H            4.03265329594372        6.87714023058631       -1.51639126201948
H            3.58022702372217        6.16210413158871        2.70283681764231
H            4.29435855923759        7.67519391500551        2.13809076813804
H            2.57413947285350        7.37229263607285        1.91009214431362
