132
energy: -196.937012343618 gnorm: 0.003779055809 xtb: 6.7.1 (edcfbbe)
C           -1.26093106871790        0.33959235552690        0.13281897979497
C           -1.19023612935640       -1.05678044568863       -0.06703974065949
C            0.03324992018099       -1.70397114598083       -0.20663862051918
C            1.22025572004060       -0.97866196775576       -0.24067854130462
C            1.21191813941673        0.43452573128075       -0.23506672573868
C           -0.04298673472195        1.03029644288209       -0.00797237692552
N           -0.08134361411718        2.38361123427004        0.09141104945794
N           -2.39183666555869       -1.73974858420931       -0.07020339806045
N            2.45842289958888       -1.58897502137993       -0.30587013008913
C            1.00222953696678        3.21404975175792        0.02295816116501
C            0.58139620862564        4.55073789593288        0.18611512771749
C           -0.86368176306335        4.49971371547735        0.32083330423442
C           -1.20938370657692        3.13201095735752        0.28404505395692
C            2.31643600983241        2.80403186829215       -0.17988128783788
C            3.25461614243196        3.84206509161488       -0.07006821014654
C            2.89982000653664        5.17410370335654        0.11639464853636
C            1.54897354261567        5.53472400240387        0.21133997455338
C           -1.88192678174772        5.42086252944116        0.45876828838898
C           -3.20896605381367        4.97568077717143        0.52722573722112
C           -3.48913512452561        3.61310831639353        0.51300932807452
C           -2.49533386439354        2.62343414890905        0.44380490742405
C           -4.31073140719780        6.02281160052050        0.64286498552443
C           -4.25508256169052        6.95308971350486       -0.57724107104684
C           -5.71361697301007        5.41200787093755        0.70762179384539
C           -4.08948522421244        6.83517764960943        1.92773445851615
C            2.81325000524886       -2.92356615915377       -0.10054830451246
C            4.13540556235821       -3.10171659002056       -0.41112724538750
C            4.64966021619930       -1.82442396786919       -0.82289461358489
C            3.57303130435537       -0.90164041339539       -0.72072683316721
C           -3.51028048908473       -1.20248241555722        0.52156557504055
C           -4.50591168282540       -2.21684411163665        0.59097335998466
C           -3.94781141113798       -3.37736048136353       -0.04078256145816
C           -2.67875526286231       -3.05369172187052       -0.44151482562091
C            5.88064223050234       -1.39019947951631       -1.24391292427605
C            6.02135779090893       -0.04768969643171       -1.64730676126027
C            4.92422478656159        0.86239936192940       -1.55191577876970
C            3.68310756898182        0.45916427264758       -0.97132648751111
C            7.24664108019642        0.40776969194539       -2.18265841371150
C            7.38256821904748        1.67960753638402       -2.66080497495617
C            6.28083500229172        2.54695936274595       -2.64896784294247
C            5.08821975304266        2.14575075148668       -2.11162650511362
C           -3.68979575861301        0.10319362376761        0.95693610888767
C           -4.90870993462057        0.33593494818644        1.66474596593851
C           -5.92920987957919       -0.66331120694325        1.72197672429774
C           -5.72582804358636       -1.93545354489201        1.15271366919306
C           -5.12451710327839        1.53055516772283        2.38143054233893
C           -6.30229922374875        1.77438649049227        3.03285877300256
C           -7.33674245884079        0.82785920965379        3.00955977026422
C           -7.14343251627269       -0.36840641002912        2.38083991379218
C           -4.66345284611257       -4.63936143223240       -0.27227256732664
C           -1.82939664533107       -3.87639851663225       -1.29707770559641
C           -1.70152127617794       -5.24344943113134       -1.06283831812650
C           -0.97327077653718       -6.03529577333302       -1.93052991175902
C           -0.35425885640945       -5.47604574872065       -3.03548475957690
C           -0.47712152333061       -4.11722903645604       -3.27735264353238
C           -1.21662691957482       -3.32344770032673       -2.42336428091662
C           -4.73046535364716       -5.60382695024466        0.72812968120566
C           -5.40741401267442       -6.78949928251413        0.50986587788743
C           -6.03781915759268       -7.01774748580505       -0.70192607574812
C           -5.98842418788069       -6.05441219181645       -1.69668976052066
C           -5.30397916714283       -4.87187798761619       -1.48466531647933
C            4.96752362039100       -4.29940601348444       -0.26330558686583
C            4.81269974891218       -5.41375404835421       -1.08026453656887
C            5.63024930155852       -6.51803354291305       -0.92174811655648
C            6.61987704393545       -6.51967425180531        0.04619692298597
C            6.79648949024979       -5.40539714872900        0.84880432656010
C            5.97893686875921       -4.30177171611565        0.69324181476772
C            1.94850482406168       -3.87795387241519        0.59466319860453
C            1.41360682679559       -3.51957414852554        1.83436642657923
C            0.64779413632421       -4.41571271668630        2.55173118003584
C            0.41556190337515       -5.68770336275189        2.05193825056615
C            0.94579533919592       -6.05127929982520        0.82751765380404
C            1.70309323010167       -5.15269854389837        0.09758005512212
B            2.47289503104354        1.28702681555339       -0.48381462980175
B           -2.56017364253204        1.07113382477125        0.52966145568364
C            3.94750777975745        6.27697294366244        0.21178810521681
C            5.38266546274756        5.74821298460368        0.12680130778289
C            3.73894687536278        7.26655816598745       -0.94366966167811
C            3.79019354557567        7.00355135440080        1.55537685629988
H            0.06097191952936       -2.77607987858315       -0.28406730320211
H            4.29618205604685        3.57432561170185       -0.11559698301660
H            1.26055685618730        6.56843320267435        0.32652789896118
H           -1.65058027225667        6.47438852407610        0.49595461125056
H           -4.51414131889498        3.28471613087054        0.54041205449924
H           -5.04389498503306        7.70031304300373       -0.51589957933896
H           -3.30225773649511        7.47106897227105       -0.64152222829575
H           -4.39326890781423        6.38013350137029       -1.49207004679430
H           -6.44978609180670        6.20961668577182        0.78856204798477
H           -5.82273496252996        4.76515791184921        1.57485073681642
H           -5.93604062496857        4.84129480784083       -0.19100870249135
H           -4.08874082967830        6.17518877318410        2.79294056624956
H           -3.14246334772744        7.36705013462545        1.90527724859129
H           -4.88587208283616        7.56601074579441        2.05171153843243
H            6.72417424735849       -2.06321767334319       -1.29718589566273
H            8.07403608037547       -0.28653277969679       -2.22661140494003
H            8.32324056490571        2.01367106750765       -3.07461864317671
H            6.37880114981539        3.53294216186263       -3.08092685935173
H            4.23173443048065        2.79956625690896       -2.14755824755490
H           -6.51160407978995       -2.67648718723766        1.18593263415424
H           -4.31784508749969        2.24300514296562        2.44049712280284
H           -6.44021300764338        2.69541080420437        3.58134717703013
H           -8.26872304860346        1.04000572611586        3.51238641297974
H           -7.91462531834771       -1.12597413622104        2.39140058663077
H           -2.16766318128046       -5.68081985440323       -0.19356684682643
H           -0.88759376610118       -7.09618049373693       -1.74184291014497
H            0.21952851908611       -6.09660966384417       -3.70960954026899
H           -0.00257919236590       -3.67575507425225       -4.14200908194090
H           -1.32791170058997       -2.26757185942883       -2.62771375146593
H           -4.23799813112771       -5.42179674527317        1.67190582548231
H           -5.44381020659572       -7.53901740770521        1.28741959797093
H           -6.56778997846934       -7.94326970147232       -0.87070685424659
H           -6.48889094268170       -6.22411271105962       -2.63759374855448
H           -5.26233235380548       -4.11820489324986       -2.25828346453542
H            4.06573421669138       -5.40369432348390       -1.86039935593925
H            5.49874968194037       -7.37966705140657       -1.56027226182176
H            7.25702075242575       -7.38312856010894        0.16957933175970
H            7.57474064681548       -5.39670805314665        1.59808292693171
H            6.11348742283846       -3.43217418584208        1.32034251888598
H            1.60539835599952       -2.53146560432198        2.22834108169251
H            0.23723375800663       -4.12558228997893        3.50834768884208
H           -0.17554998649559       -6.39194431848552        2.61854798811753
H            0.76928408640580       -7.04115772556163        0.43455069455167
H            2.08648872354769       -5.43409250568210       -0.87000320993402
H            6.07831294098322        6.58016448144138        0.21451002985547
H            5.59253688661720        5.04958800103554        0.93335567121791
H            5.56612104791467        5.25599821996027       -0.82509498732353
H            4.49191381590726        8.05193892530131       -0.90568780355876
H            2.75897731682522        7.73374772768497       -0.89692967569330
H            3.82575974666231        6.75183256448858       -1.89882550738102
H            3.89491012319637        6.29786499892287        2.37709957380154
H            4.55448815112509        7.77086683675317        1.65972501946656
H            2.81792077180584        7.48104542075237        1.63926503931096
