132
energy: -196.936481592207 gnorm: 0.003181954471 xtb: 6.7.1 (edcfbbe)
C           -1.26441681151161        0.34129839276223        0.12240032255415
C           -1.19149104072673       -1.05527298648537       -0.07059142850149
C            0.03190432548990       -1.70557629751686       -0.19123048616991
C            1.21732316836501       -0.97948858322725       -0.22754511443782
C            1.20776017734888        0.43366817093810       -0.23706161541443
C           -0.04677428169721        1.03225178610213       -0.01717540606605
N           -0.08669988772918        2.38580386988443        0.07530323103996
N           -2.39123983834041       -1.73936045273886       -0.08445850736673
N            2.45481212539600       -1.59051432453891       -0.28207819237418
C            0.99724079483614        3.21587683256977        0.00467748031367
C            0.57795046980404        4.55259339024681        0.17324734396995
C           -0.86763680810151        4.50147909073657        0.31591666774220
C           -1.21354594967378        3.13358607167332        0.27577332346599
C            2.31006590982460        2.80358198874059       -0.20370251165174
C            3.25018603741822        3.84034778248041       -0.10006265242917
C            2.89825837685379        5.17218096822578        0.09092571281262
C            1.54824696928826        5.53475041188747        0.19605931706829
C           -1.88648015235515        5.42073114895803        0.46464291341743
C           -3.21307370780357        4.97405213820050        0.53819231484282
C           -3.49230694970764        3.61132539590335        0.52097522674892
C           -2.49834552424391        2.62315748293260        0.44115602798725
C           -4.31715349172072        6.01808196968004        0.65933198030101
C           -4.26476702282425        6.95217024308616       -0.55802782667076
C           -5.71891542007568        5.40381652349350        0.72189915168263
C           -4.09932901345544        6.82740835541805        1.94606436572608
C            2.80491438148612       -2.92517678434187       -0.07300418495859
C            4.12390680147204       -3.10909734859312       -0.39345552302481
C            4.63978618215926       -1.83533855426259       -0.81721549414513
C            3.56711418529580       -0.90907466252902       -0.71298636226648
C           -3.51115467352766       -1.20629903672079        0.50569384561111
C           -4.50228510811633       -2.22431127507346        0.57442913944849
C           -3.93711437965423       -3.38398342761063       -0.05449374361357
C           -2.66986336361569       -3.05483295426139       -0.45652244018158
C            5.87083191501355       -1.40418302787125       -1.24387486094769
C            6.01558459627843       -0.06166493535395       -1.64386193856149
C            4.91703602139216        0.84832119173469       -1.55884373101452
C            3.67599552612661        0.44940650858280       -0.97621646066793
C            7.24826018681127        0.39973526721367       -2.15745975102052
C            7.38747618386404        1.67376463464589       -2.62719307316459
C            6.28050597166745        2.53528205123617       -2.64107261746617
C            5.08118908493246        2.12925750402216       -2.12458560036709
C           -3.69014813618424        0.09794313274429        0.94609391522168
C           -4.90478338738730        0.32350364798873        1.66249898475092
C           -5.92261266750904       -0.67874401649005        1.72036228006662
C           -5.72025933135544       -1.94724495250984        1.14346037991116
C           -5.11339806790530        1.51262613408682        2.39077282562033
C           -6.28466706495830        1.74965752376084        3.05611493826104
C           -7.31875340413218        0.80183547183044        3.03332493603990
C           -7.13148766202782       -0.38878282120857        2.39269262080135
C           -4.65510319108827       -4.64676013773691       -0.27617511405060
C           -1.82154074626833       -3.85338750816362       -1.33509122067456
C           -1.67644947971674       -5.22362325687156       -1.13474987033165
C           -0.94915855602270       -5.98773317037688       -2.02880668545120
C           -0.34817561175135       -5.39734572353470       -3.12656904420881
C           -0.48712114776595       -4.03398669852523       -3.33433002304273
C           -1.22408176270494       -3.26812910597730       -2.45346581260909
C           -4.61353686765970       -5.66098286840161        0.67584697069274
C           -5.30114812649090       -6.84287193223852        0.46721093797085
C           -6.04332717369646       -7.01874972884777       -0.68941514671067
C           -6.09799804296097       -6.00832538959810       -1.63574208462252
C           -5.40655767050101       -4.82793894537436       -1.43174085386486
C            4.96087636122393       -4.30027453319646       -0.22868727438062
C            4.77789453528823       -5.45279966740116       -0.98403752126866
C            5.60893233432796       -6.54445021977033       -0.80748122651301
C            6.63973826309163       -6.49464068830533        0.11530474580115
C            6.84292637544844       -5.34245603354428        0.85769629199134
C            6.01185884908345       -4.25249495370896        0.68544240491885
C            1.93702273404296       -3.87855148813474        0.62309232044052
C            1.44616586728024       -3.55088160983614        1.88790487257928
C            0.67878693972296       -4.45413927277593        2.59609245386868
C            0.40104921830100       -5.70212125549429        2.06265224101443
C            0.88798913767978       -6.03687974971245        0.81150240781736
C            1.64510316491579       -5.13026174455992        0.09248298216085
B            2.46706171880876        1.28423083985148       -0.49596316229723
B           -2.56350631668767        1.07046426239637        0.52030687502549
C            3.95054577827593        6.27150915248703        0.17985058024202
C            5.38330224370558        5.73801393477806        0.08432772824972
C            3.73688492651506        7.26243485824488       -0.97344809338472
C            3.80779974546448        6.99732967817457        1.52532201811503
H            0.05803034325959       -2.77871232255724       -0.25408254807542
H            4.29100433221457        3.57174832646076       -0.15401620654669
H            1.26327099935453        6.56881156143040        0.31648927547411
H           -1.65649516289449        6.47448308360706        0.50688636510289
H           -4.51671480415148        3.28187430582973        0.55521643499519
H           -5.05452759816728        7.69779082645167       -0.49310242829635
H           -3.31279672519682        7.47203192043923       -0.62182306899161
H           -4.40321100550469        6.38172795077527       -1.47412874697403
H           -6.45742288963941        6.19975881690832        0.79983869166569
H           -5.82892019064439        4.75819903487157        1.59008946053947
H           -5.93829787069705        4.83111755075150       -0.17623121948494
H           -4.10682621117824        6.16679485963808        2.81084726259480
H           -3.14963000393492        7.35535258819515        1.92979390250028
H           -4.89336836077403        7.56189484830249        2.06623307037250
H            6.71251160714788       -2.07958283721172       -1.30150636201375
H            8.08002080506587       -0.29062072616346       -2.18650665104814
H            8.33579118782027        2.01482921068302       -3.01533333648946
H            6.38092815202433        3.51996522267199       -3.07506358766282
H            4.22006802327607        2.77590286280983       -2.17799048619229
H           -6.50436503060916       -2.68979169271841        1.17817465537367
H           -4.30395741396468        2.22273355036395        2.44678977747951
H           -6.41708509527494        2.66486286033916        3.61554004707903
H           -8.24664991351764        1.00883764861105        3.54685451697695
H           -7.90325572145084       -1.14615097326929        2.40571114038488
H           -2.12980520344720       -5.68603126438127       -0.27253410871929
H           -0.85432916767606       -7.05066831616118       -1.86839832833747
H            0.21940346721334       -5.99599133227015       -3.82293776477889
H           -0.02613563930115       -3.56754808628589       -4.19266434709093
H           -1.34511296261333       -2.20975816766377       -2.63173178784696
H           -4.03787119393293       -5.51794220890037        1.58207170093462
H           -5.25756332884183       -7.62907811396060        1.20911128150464
H           -6.58135477498824       -7.94151055764926       -0.85017560021253
H           -6.68048380482341       -6.14037685074360       -2.53748115186391
H           -5.44461505447181       -4.03747716849262       -2.16904691255093
H            3.99888161147028       -5.48505588376189       -1.73146352849634
H            5.45539770784636       -7.43644318866175       -1.39824000180360
H            7.28868261430801       -7.34740334621477        0.25025698611472
H            7.65246661265890       -5.29369939500461        1.57224712896676
H            6.16512256937670       -3.35290314006449        1.26528813481005
H            1.67210154232575       -2.58340769379297        2.31306766776105
H            0.30215220597529       -4.18636859740517        3.57217582549939
H           -0.19253852092748       -6.41070192200765        2.62082564709032
H            0.67634674379105       -7.00818559630455        0.39072411768525
H            1.98996527870016       -5.38555115210339       -0.89586339352443
H            6.08300557193358        6.56816476448954        0.16671113782013
H            5.59701969378834        5.03961758879222        0.89029909272977
H            5.55962852813528        5.24471133615873       -0.86872994447976
H            4.49233489967851        8.04453818235621       -0.94089794877182
H            2.75881959369257        7.73279652491216       -0.91864116059319
H            3.81383172641268        6.74764573859146       -1.92894442866095
H            3.93078967205642        6.29246065955673        2.34515411846544
H            4.56844265427945        7.77000238527459        1.61766976693073
H            2.83353576020528        7.46786064016612        1.62454542165983
