132
energy: -196.941601485798 gnorm: 0.006463666931 xtb: 6.7.1 (edcfbbe)
C           -1.24720480868901        0.35107014182680        0.21158079179617
C           -1.18178824901644       -1.04403656006217        0.00052711691798
C            0.04326453086194       -1.68981285649223       -0.13560188191369
C            1.23246971211863       -0.96684565966331       -0.14681353876015
C            1.22782488655014        0.44543099887946       -0.13002358164758
C           -0.02699628386922        1.04162667939904        0.09041018451836
N           -0.06504553948570        2.39463984313324        0.19296794067380
N           -2.38853944094355       -1.72112657323952       -0.02730020245429
N            2.47075228025497       -1.57979371820628       -0.21611001758965
C            1.01962537859848        3.22476160382874        0.12730581457789
C            0.59641099330019        4.56196038151072        0.28285531999636
C           -0.85003895389034        4.51265694302581        0.40719675948360
C           -1.19348995900297        3.14486851715842        0.37148032789056
C            2.33380020991929        2.81514662606012       -0.07885327017730
C            3.27042308691819        3.85724636400347        0.01634080275814
C            2.91266211137145        5.18979432872249        0.19255665310702
C            1.56161821019664        5.54772267179597        0.29712881380745
C           -1.87277095106132        5.43277023512001        0.52023702586148
C           -3.20075102401122        4.98608398133215        0.56356341509794
C           -3.47802695099836        3.62336345822470        0.55642294862132
C           -2.48105430581289        2.63687206312027        0.51080420242772
C           -4.31037729613029        6.02858294497216        0.62964113006711
C           -4.21493572393096        6.94040474970079       -0.60215128231020
C           -5.71167933532984        5.41043683372655        0.65108976539938
C           -4.14179268200275        6.86102311838350        1.90880561699512
C            2.83144415891063       -2.91692750392022       -0.03558165108645
C            4.12217347981905       -3.10423503813076       -0.45787566937350
C            4.61754430887240       -1.83303513470764       -0.90106726111198
C            3.56345356226603       -0.89843658657423       -0.69956343159947
C           -3.52191621197276       -1.17432882812206        0.52950234995027
C           -4.53650088777102       -2.17106145513913        0.54967749725399
C           -3.97039825400521       -3.33873157518274       -0.07003773495669
C           -2.67837950677710       -3.02677035698345       -0.41407351314855
C            5.82292619289795       -1.40030338504278       -1.39613257216212
C            5.95371467315165       -0.04945994489269       -1.77227973306341
C            4.87581622387117        0.86971617227997       -1.58289815534276
C            3.67008037626509        0.46530246708295       -0.93327171099135
C            7.14802729422328        0.41181262765644       -2.36978994912505
C            7.26677999247828        1.69544357867077       -2.81911150259210
C            6.17752651196160        2.57281363475393       -2.71586173432410
C            5.01760140595196        2.16679455130692       -2.11595369121141
C           -3.69507172059577        0.12829197875636        0.97507809471092
C           -4.93102462319503        0.37849158492860        1.64321601651275
C           -5.97796302832948       -0.59260350864548        1.63069587399416
C           -5.77802641605288       -1.85850137936105        1.04624489078870
C           -5.14145521461640        1.56240604794367        2.37917013802729
C           -6.34174435524865        1.82810508841047        2.97869830054122
C           -7.40188405673503        0.91487316058592        2.88032256233159
C           -7.21413886780554       -0.27438024837177        2.23621140703468
C           -4.68316528561847       -4.58823456071352       -0.31159698995112
C           -1.76438490635851       -3.88173954095181       -1.16885063243877
C           -1.54668240850348       -5.19947135128419       -0.77483835837792
C           -0.73236422017025       -6.02477601762622       -1.52673826193566
C           -0.11898154463925       -5.54509517620040       -2.67178181475336
C           -0.33392512424743       -4.23663374273113       -3.07279387938077
C           -1.15791870287460       -3.41063147013607       -2.33366503509774
C           -5.45781455786399       -5.14980367502482        0.70406421697530
C           -6.15614550820123       -6.32190531667756        0.48507004487934
C           -6.09080849920650       -6.95318019358359       -0.74605551839150
C           -5.31791507463749       -6.40650988569103       -1.75933745477802
C           -4.61932221422403       -5.23304666278880       -1.54474736634434
C            4.91673835787083       -4.33974113230289       -0.40569855473206
C            5.09091354247573       -5.11653050304693       -1.54905567493094
C            5.84439314505656       -6.27533254526765       -1.49799060058650
C            6.44207475071501       -6.66373946823218       -0.30878862405594
C            6.28363941586365       -5.88820330720733        0.82960159515693
C            5.52287782156209       -4.73383544291603        0.78414614909583
C            2.01825801320561       -3.90025497630139        0.67126060442728
C            1.30858157895145       -3.53993301095095        1.81859031089877
C            0.58715053978683       -4.48371616350132        2.52233790804347
C            0.58937806396955       -5.80832872151218        2.11625793786835
C            1.31098477352330       -6.18026743906005        0.99559384013205
C            2.01178582890161       -5.23485111402590        0.27085213194885
B            2.48651659817349        1.29796968681995       -0.38777397181641
B           -2.54767185194919        1.08671089724697        0.58868762729895
C            3.95341440163976        6.30145762474116        0.25553999623236
C            5.39088700846946        5.78459914552467        0.14453428826177
C            3.71008463980497        7.27505705087471       -0.90655348858766
C            3.81955454651204        7.04234031285843        1.59369901652446
H            0.07531103692204       -2.76017541388993       -0.22695421895168
H            4.31307977190849        3.59346871350635       -0.03599624036562
H            1.27068039408105        6.58115846171166        0.40688539926978
H           -1.64460534519096        6.48716040611295        0.55398042016684
H           -4.50192551778080        3.29147972966339        0.56874504625158
H           -5.02132969949509        7.67089487075095       -0.59224256976838
H           -3.27119896778381        7.47791811625726       -0.62848967919921
H           -4.29595096854856        6.34960132190541       -1.51240657774850
H           -6.45485465531259        6.20460922568596        0.69550920355643
H           -5.84988920175992        4.77323242954433        1.52134350724222
H           -5.89821019544082        4.82781471537052       -0.24815368022040
H           -4.19232808062365        6.21743501910023        2.78477029169351
H           -3.18789076866051        7.38125434819529        1.92378695527856
H           -4.93432901597631        7.60329473641669        1.97979085452063
H            6.65338338794118       -2.08003465447343       -1.52480289568331
H            7.96627268104058       -0.28564058257088       -2.48355335590125
H            8.18405374539101        2.03262791891789       -3.27883511309403
H            6.25746420855569        3.56950145044154       -3.12553949583701
H            4.16749662502112        2.82840355482890       -2.07672795962188
H           -6.59291894066439       -2.56680524023142        1.01575978347304
H           -4.31445243846182        2.24495142453356        2.49319200273098
H           -6.47808610097378        2.74037774187525        3.54222215658397
H           -8.35213028203682        1.14497783472817        3.33982373705491
H           -8.00817828731218       -1.00740384851725        2.19462004283968
H           -2.01472858983830       -5.56618139587989        0.12627705732903
H           -0.57648449344409       -7.04671297526126       -1.21610333054317
H            0.52110838792067       -6.19211527091169       -3.25303029609810
H            0.13681131556751       -3.86092298796785       -3.96955931280727
H           -1.33605854442763       -2.39391122158873       -2.65386571282367
H           -5.50095300068326       -4.66764529364185        1.66938457721033
H           -6.75663808679381       -6.74626062174965        1.27626085982491
H           -6.64218199054416       -7.86629009242134       -0.91745077128229
H           -5.26815951931835       -6.88954269454326       -2.72129061331089
H           -4.03648198095315       -4.79843599634521       -2.34211035824799
H            4.62482038863911       -4.81124019893984       -2.47741762937693
H            5.96420271347500       -6.87816155170295       -2.38827973313538
H            7.03202736011002       -7.56791983727923       -0.27068682920973
H            6.75508008734498       -6.18346840997958        1.75762684430477
H            5.39751177610111       -4.12794155429884        1.67235871160890
H            1.32346468953407       -2.51504166019232        2.15984767025011
H            0.02956594017006       -4.18496754211786        3.39763582751236
H            0.03497410350033       -6.54672195221337        2.67520297770914
H            1.32771056480149       -7.21442545566294        0.68403811382113
H            2.55131912593261       -5.52748553190075       -0.61592734349344
H            6.08023740536924        6.62541399320055        0.19906358059717
H            5.62760246318716        5.10360408493700        0.95895187168807
H            5.55559884933666        5.27618100433036       -0.80284196088754
H            4.45109129412670        8.07164428514432       -0.89076140222956
H            2.72446603574925        7.72811269424551       -0.84789095112588
H            3.78736105614239        6.75086439478997       -1.85694523174008
H            3.96352242399757        6.35005235150017        2.42103006221169
H            4.57054271611377        7.82663343803722        1.66546000441762
H            2.84022606261787        7.50058735463294        1.70064658516910
