132
energy: -196.943211172394 gnorm: 0.005523185860 xtb: 6.7.1 (edcfbbe)
C           -1.25440941887648        0.35798257773556        0.23571684900503
C           -1.18261607250458       -1.04016713315404        0.04126337476919
C            0.04424384096053       -1.68722049748325       -0.06965407055887
C            1.23058332920696       -0.96170657633639       -0.09989239456969
C            1.22183234668233        0.45025335924886       -0.10239170696912
C           -0.03337234386460        1.04703041367683        0.11701365963862
N           -0.06749075551586        2.40063833012297        0.21354683151937
N           -2.38503795318549       -1.72154997481299       -0.00211243777297
N            2.46958042222286       -1.57068544563940       -0.18078840290969
C            1.01898234582776        3.22743086011325        0.14534839953188
C            0.60135648726294        4.56555243063881        0.30532829110207
C           -0.84427345007550        4.51970061397123        0.43242825504888
C           -1.19470207489259        3.15346830758119        0.39271283114155
C            2.33088415793635        2.81711740314821       -0.07369125211924
C            3.27147129485005        3.85526751701683        0.01290609814585
C            2.91925515826613        5.18826400209105        0.19892814274558
C            1.56998005192996        5.54853246165870        0.31601054616623
C           -1.86144238678034        5.44514676689860        0.54783584451621
C           -3.19103766729813        5.00416564267952        0.58514118898084
C           -3.47632113426449        3.64254458429167        0.56743261633006
C           -2.48527689696861        2.64875642645060        0.52270370253097
C           -4.29215334061657        6.05575020709774        0.65649978885318
C           -4.19192584561193        6.96996288723316       -0.57296807480077
C           -5.69820571102673        5.44951097977211        0.68141857653464
C           -4.11167489251752        6.88272590865425        1.93773689390687
C            2.83487327257647       -2.90387404046248        0.00588068782447
C            4.11328215294180       -3.09780656713389       -0.45131679875773
C            4.59379859611225       -1.83148355936105       -0.92752570790477
C            3.54782628883417       -0.89467758258664       -0.70091580827954
C           -3.53024491533108       -1.17053323284981        0.52522592439194
C           -4.54580248850452       -2.16679678950261        0.52701718141553
C           -3.96723283455177       -3.33700432456004       -0.07655738801679
C           -2.66633216185837       -3.02946239211345       -0.38921631571436
C            5.78235420007907       -1.40621867266189       -1.46565756025470
C            5.90526756141071       -0.05714723323657       -1.85250946817603
C            4.83671101885232        0.86594493604050       -1.63364187054509
C            3.64909624269969        0.46668736590771       -0.94983589273316
C            7.08373156308161        0.39562187330187       -2.48545609808313
C            7.19820496476031        1.68014785228620       -2.93455145577221
C            6.11711737715639        2.56320928246875       -2.79819561483731
C            4.97054693628813        2.16301942248355       -2.16928322962435
C           -3.71446429177643        0.13500771679905        0.95951402958049
C           -4.96480855933040        0.38297296384595        1.60329646744896
C           -6.01028902519966       -0.58918837611083        1.57346264725088
C           -5.79794966444701       -1.85542468551868        0.99408620349539
C           -5.19027834652997        1.56430494617504        2.33873154855907
C           -6.39864012033132        1.82421007172215        2.92377718125467
C           -7.45567085260342        0.90976571824582        2.80765594495395
C           -7.25628902103372       -0.27530839297320        2.15995825622511
C           -4.67497742394340       -4.58399420685549       -0.34060515169827
C           -1.74158997445434       -3.90280424418052       -1.10797440743978
C           -1.56946410040919       -5.22384320252823       -0.70126822315002
C           -0.75390722293735       -6.07409236894639       -1.42214245796977
C           -0.09102915178950       -5.61703968414742       -2.54902626639224
C           -0.25631001797079       -4.30475282979244       -2.96147850390520
C           -1.08357519041432       -3.45438763177854       -2.25382153365116
C           -5.45929363036416       -5.16389833261939        0.65486117388266
C           -6.15121160233629       -6.33466670495008        0.41189378011770
C           -6.07532982916972       -6.94466863377287       -0.82907004338189
C           -5.30025612930212       -6.37493835707358       -1.82570218050880
C           -4.60701628268797       -5.20486703260697       -1.58695615142234
C            4.90515100367323       -4.32971615750539       -0.40816940278368
C            5.30091990160335       -4.94896380689473       -1.58934583366841
C            6.05261618197513       -6.10905135973071       -1.55336638480026
C            6.43333119812180       -6.65344714075459       -0.33995810471936
C            6.05289332226804       -6.03626738737741        0.83879273465837
C            5.28959508319733       -4.88426541757063        0.80712439170815
C            2.03797249508992       -3.88974299394146        0.72636157256931
C            1.35526212586922       -3.54599676099403        1.89434957469673
C            0.65822105923868       -4.50271419503981        2.60426807730971
C            0.64941124554587       -5.82080614018539        2.17684154736273
C            1.34430362663171       -6.17358710534858        1.03300946915307
C            2.02688460754252       -5.21777791091786        0.30580679110302
B            2.47673699214929        1.30038429317412       -0.38280337457008
B           -2.56006192064960        1.09631067025347        0.59384956245191
C            3.96380817708290        6.29621513838648        0.25439506604083
C            5.39854842489256        5.77307293014149        0.13836910085034
C            3.71824271599929        7.26615468633129       -0.91101748987550
C            3.83918084884332        7.04415508142328        1.58894526144164
H            0.07866218832599       -2.75935232416008       -0.13742459366200
H            4.31221420065966        3.58733204823612       -0.05506817018660
H            1.28322619394091        6.58265375731912        0.43064325340141
H           -1.62746565118366        6.49813271274841        0.58691785929515
H           -4.50292961325838        3.31837680945219        0.56965210128621
H           -4.98535365707783        7.71430462038332       -0.55402297763453
H           -3.23923879296274        7.49145124289237       -0.60638064070296
H           -4.29057819172621        6.38354768233567       -1.48424687172476
H           -6.43458157178860        6.24930108933363        0.73332291867336
H           -5.83632966234349        4.80922576022282        1.54940444381037
H           -5.89359297743105        4.87266156706411       -0.21950941977411
H           -4.15779058850864        6.23537083025903        2.81134539626883
H           -3.15605242215870        7.39992551872229        1.94846250495885
H           -4.90088806221547        7.62747583997190        2.01796493226845
H            6.60503405722040       -2.09007190211700       -1.61614097793236
H            7.89257653222351       -0.30855702662788       -2.62316372730225
H            8.10434232012162        2.01412581598705       -3.41822688752368
H            6.19404709080139        3.56118471415586       -3.20634353502254
H            4.12650903718984        2.83057872470252       -2.10609676738809
H           -6.60827780539623       -2.56821853012970        0.94857380563044
H           -4.36839182184990        2.24979881077669        2.46797406531771
H           -6.54467764417780        2.73216799043815        3.49169462572014
H           -8.41138767810254        1.13684075909766        3.25634223040391
H           -8.04695942620459       -1.01036434216730        2.10308186996314
H           -2.07387653162421       -5.57699431420096        0.18570096859612
H           -0.63430000813079       -7.09844945817851       -1.10427065885753
H            0.55159510760544       -6.27956564137093       -3.10952840544806
H            0.25493734196533       -3.94354661530165       -3.84199450511267
H           -1.22510244673067       -2.43481431941016       -2.58398979344941
H           -5.50189949042451       -4.69580968125247        1.62727620372205
H           -6.75365829584020       -6.77559096871808        1.19481694754251
H           -6.61947241645632       -7.85790591418437       -1.01778769475129
H           -5.24355506532912       -6.84356194168671       -2.79697243391859
H           -4.01302320087058       -4.75720653724066       -2.37302671361018
H            5.00113324435823       -4.52274216931743       -2.53520038183584
H            6.34191700683788       -6.59202128119180       -2.47449655811739
H            7.02540436591405       -7.55643171233333       -0.31244172063883
H            6.35559806221664       -6.45380741816054        1.78661973862546
H            4.99045284471224       -4.40092998107834        1.72563207351807
H            1.37867115127825       -2.52404600477961        2.24537217554909
H            0.12632993429853       -4.22002429716641        3.50088418451418
H            0.10860305318199       -6.56952523953348        2.73569716461064
H            1.35536715107284       -7.20146645826049        0.70391024803116
H            2.55045341267438       -5.49318549099724       -0.59631143578442
H            6.09261771317998        6.60990160916676        0.19156694872686
H            5.63508973014639        5.08991923268332        0.95092083236348
H            5.55820354191446        5.26507094074463       -0.80984331295642
H            4.47255186437056        8.05150127574213       -0.91163573390944
H            2.73991810885923        7.73540313634159       -0.83957249941142
H            3.77245427660975        6.73393936240171       -1.85971244746745
H            3.98534698181483        6.35658108688145        2.41963045819614
H            4.59230658157053        7.82696753855736        1.65251791397282
H            2.86182600902913        7.50630754587228        1.69860399066029
