132
energy: -196.936192885400 gnorm: 0.002918233758 xtb: 6.7.1 (edcfbbe)
C           -1.25512111267607        0.31939336149070        0.12467254886784
C           -1.18425467268944       -1.07619162088757       -0.07779201652830
C            0.04055759310157       -1.72449532118467       -0.20143983654162
C            1.22708801190239       -0.99762140764879       -0.22964983506135
C            1.21752472322499        0.41581126173159       -0.22890711718308
C           -0.03771794088956        1.01141225928641       -0.00718910498526
N           -0.07783362292981        2.36432174187221        0.09537288630765
N           -2.38825336879107       -1.75530362658699       -0.09661525212551
N            2.46738551972286       -1.60475407572155       -0.28427482825878
C            1.00439793043487        3.19656110253918        0.02759967570135
C            0.58107194022119        4.53190542141932        0.19547521936337
C           -0.86324599124620        4.47843104265931        0.33499352647599
C           -1.20660565085811        3.11064780821150        0.29146139935925
C            2.31847059285165        2.78947317751033       -0.18208048946931
C            3.25410353954143        3.83178095695841       -0.08722426485750
C            2.89587679223158        5.16364485145512        0.09462191461986
C            1.54529152584403        5.51883128873502        0.21032333332328
C           -1.88300009211177        5.39695728227042        0.47912528508620
C           -3.20941361775550        4.94955885546181        0.54614557294516
C           -3.48762558726892        3.58680611065342        0.52378024958596
C           -2.49180914778977        2.60009548004886        0.44794424762676
C           -4.31282039697177        5.99411642641896        0.66703647820925
C           -4.25395472320274        6.93370185447828       -0.54582628082559
C           -5.71520159682377        5.38109766942582        0.72183953770472
C           -4.09771884526957        6.79647709199813        1.95889632482606
C            2.82407159852444       -2.93584278783235       -0.06629548797907
C            4.15033598013930       -3.11264751935651       -0.35876502299440
C            4.66306911536499       -1.83630484291716       -0.78242302995662
C            3.58215006499526       -0.91728684680545       -0.69776732783505
C           -3.50427747456029       -1.22306787386900        0.50168662949716
C           -4.50105434729123       -2.23586452259928        0.56335183004178
C           -3.94430961652855       -3.39290332955011       -0.07906982567058
C           -2.67605611588990       -3.06586029455684       -0.48238533497420
C            5.89312621097521       -1.39842299566305       -1.20350173132943
C            6.02950930418068       -0.05903519643443       -1.61959005937273
C            4.92661011613012        0.84518007894945       -1.54172243606015
C            3.68674132232522        0.44141974237492       -0.96089230419762
C            7.25593831065481        0.40204919673109       -2.14737521060462
C            7.38418823488345        1.66962276294091       -2.63866942809109
C            6.27389648647131        2.52644562533213       -2.65242092402601
C            5.08100670488283        2.12173078404528       -2.11927926888105
C           -3.67849832925343        0.07796517118299        0.95124598148380
C           -4.88795411882912        0.30586153903577        1.67407730842400
C           -5.90862859726608       -0.69270403539598        1.73202943813048
C           -5.71415601264444       -1.95773860762795        1.14296039131244
C           -5.08722477059249        1.49306771822088        2.40747645158392
C           -6.25256283496330        1.73114806562619        3.08233030311675
C           -7.28897596275926        0.78646662379243        3.06297703775517
C           -7.11102242426766       -0.40177835301527        2.41436642181743
C           -4.66772460984602       -4.65419001650403       -0.29032289988209
C           -1.82896596304662       -3.83475508338903       -1.38918255795631
C           -1.66881949856920       -5.21013328119635       -1.24338147744189
C           -0.92439319805398       -5.92786003935484       -2.16143696880340
C           -0.32164836034887       -5.28679780607057       -3.22999320259486
C           -0.48251687410513       -3.91958869956962       -3.38874058994451
C           -1.23735406242754       -3.20004536641938       -2.48447987958806
C           -4.51176014150475       -5.71154865944239        0.60083447586099
C           -5.20654786834790       -6.89203443096661        0.41255691980128
C           -6.07279230424638       -7.02592820451330       -0.66132956795170
C           -6.24259733574088       -5.97310582894249       -1.54453842732049
C           -5.54603533776241       -4.79218311878900       -1.36005932747693
C            4.98566452424360       -4.30148925599733       -0.18042899492989
C            4.75289509916504       -5.48781062551370       -0.86793376823496
C            5.57716771837244       -6.58219421416439       -0.67862095123448
C            6.65081239666763       -6.50546921725059        0.19163667405196
C            6.90285114337403       -5.32225181689561        0.86638912454275
C            6.07955955628126       -4.22829030972172        0.67996387138814
C            1.93840268194772       -3.87745727237788        0.62540342889907
C            1.48801828011012       -3.54760312564229        1.90472750767233
C            0.68883426497951       -4.42317992292374        2.61221856828997
C            0.33616600586418       -5.64440068549967        2.05887875597996
C            0.77904322400366       -5.97829995180196        0.79159736828721
C            1.57066380710292       -5.09967860198348        0.07402945348250
B            2.47592047324656        1.27075467070360       -0.47999382852961
B           -2.55321347667493        1.04842239243481        0.52469584110757
C            3.93659764000472        6.27558698955599        0.15235628282335
C            5.37296356183179        5.75982709052410        0.02451114342514
C            3.68180726884627        7.25322473945009       -1.00431899012907
C            3.81592575570719        7.01289305760318        1.49358669603361
H            0.06811427336444       -2.79710581465039       -0.27411878871335
H            4.29645275307028        3.56862223950449       -0.14368480072466
H            1.25382758709194        6.55117252390441        0.32996086160522
H           -1.65303815749001        6.45059587762679        0.52231678618812
H           -4.51177977240510        3.25551028077695        0.55063807365530
H           -5.04589911624813        7.67747841927846       -0.48336897533735
H           -3.30274285583661        7.45572054686034       -0.60091421703032
H           -4.38490386397550        6.36693660753266       -1.46557776551290
H           -6.45221562257667        6.17674899244559        0.81372419133194
H           -5.82500572831706        4.72168168987833        1.57946930042947
H           -5.93602555577059        4.82309296272707       -0.18516414685687
H           -4.13274439295031        6.13393567481917        2.82151243058702
H           -3.13664269437543        7.30315005959700        1.95902170178826
H           -4.87733697109644        7.54753423561465        2.06865172026989
H            6.74110279731579       -2.06630995314326       -1.24951081783114
H            8.09148958992238       -0.28353673736921       -2.17376309828999
H            8.32657182995996        2.00858700078118       -3.04378270695091
H            6.36582030654589        3.50603836588367       -3.09987545901711
H            4.21705070249685        2.76487655863112       -2.17148469230858
H           -6.50197902913629       -2.69669752016641        1.17675198109221
H           -4.27672589796959        2.20187108842440        2.45990489257485
H           -6.37797807013336        2.64485389194478        3.64592767087306
H           -8.21144907632532        0.99428552185957        3.58487516213212
H           -7.88570147942573       -1.15574014828294        2.42867997249833
H           -2.12221620439190       -5.71401644323760       -0.40469418630870
H           -0.80980452224774       -6.99598864044599       -2.03922806402230
H            0.26825004764218       -5.84921698594486       -3.93994134443436
H           -0.02450906573960       -3.41349254856835       -4.22634425347337
H           -1.37876937344079       -2.13769454999645       -2.62652418333039
H           -3.84332811207061       -5.59988852104925        1.44350382725415
H           -5.07474004828856       -7.70999737378404        1.10613937406533
H           -6.61560671273321       -7.94819722582536       -0.80832910459031
H           -6.92248236549231       -6.07198818131258       -2.37890198413175
H           -5.67660696768317       -3.96920073041594       -2.04797433913635
H            3.93896420959068       -5.54556474668619       -1.57451405947952
H            5.38440952352379       -7.49833153217681       -1.21851730278585
H            7.29324216992343       -7.36130891241319        0.33821270682499
H            7.74460346811251       -5.25264997163468        1.54039743752758
H            6.27220422701721       -3.30690821936096        1.21116431770788
H            1.77019862549732       -2.59802463124614        2.33758822523309
H            0.34417070694665       -4.15666589370825        3.60109768281913
H           -0.28333544645767       -6.33197028809343        2.61587079956199
H            0.50465407421334       -6.92732853174954        0.35520611803533
H            1.87783289922508       -5.34926893613011       -0.92948258008611
H            6.06208103773153        6.60114151149129        0.06559805813237
H            5.62194543706564        5.08264830749147        0.83823546053732
H            5.52549508703513        5.24717079138090       -0.92210507168363
H            4.41736421033010        8.05530066562840       -0.98735244717688
H            2.69300813347124        7.69889668183467       -0.93988296822267
H            3.75948027170666        6.73406862361559       -1.95775335053135
H            3.97924079126838        6.32112966135765        2.31774552477239
H            4.56017023817522        7.80447255407254        1.55498955458143
H            2.83388308680235        7.46129920184754        1.61604862030628
