132
energy: -196.935668344783 gnorm: 0.000863275751 xtb: 6.7.1 (edcfbbe)
C           -1.24277914232408        0.32281919907296        0.07969749736889
C           -1.16904420906822       -1.07136165529530       -0.12327060751772
C            0.05651727282618       -1.71637420260451       -0.25367291433288
C            1.24167455225730       -0.98732102015020       -0.27315075947065
C            1.23157215411952        0.42668570042655       -0.26360577759363
C           -0.02720130306426        1.01864095271076       -0.05106320235955
N           -0.07497310633229        2.37129354551211        0.04930362150109
N           -2.36980220116869       -1.75595414155472       -0.12687165428010
N            2.48092236835604       -1.59581615182663       -0.31769962622553
C            1.00402775384733        3.20828148007878       -0.00834323107750
C            0.57086640033191        4.54214185745032        0.14921252183219
C           -0.87528718538023        4.48217453287234        0.27096517649242
C           -1.20948283792422        3.11213954913042        0.23298122480561
C            2.32371375725485        2.80505245011356       -0.19139263742861
C            3.25218238900628        3.85224546997780       -0.07373300962113
C            2.88433217743601        5.18276454343392        0.09852228541172
C            1.53006160783823        5.53333342365537        0.18182589356141
C           -1.90306385668780        5.39470016050823        0.39933954557822
C           -3.22711176243241        4.93876119192166        0.45911683453622
C           -3.49522053277316        3.57394395941094        0.45281098683233
C           -2.49182404685919        2.59491558429240        0.39061063334194
C           -4.34083929004032        5.97394381510816        0.56236635601218
C           -4.27036987747982        6.91920569491973       -0.64519249702616
C           -5.73894215090717        5.34891114396046        0.58894379465149
C           -4.15386655786741        6.77139073608747        1.86128069815112
C            2.83056590112144       -2.92764441334744       -0.10147629877886
C            4.16874255109218       -3.10010314296167       -0.33711277895390
C            4.69495225073053       -1.82072568762691       -0.73496085530814
C            3.60967174662146       -0.90331819062251       -0.68461084696390
C           -3.47431172307324       -1.23334018855683        0.49913254730512
C           -4.45375769664498       -2.25895672795517        0.59759541929716
C           -3.90120828591240       -3.41408914953262       -0.05325454959825
C           -2.65243051027829       -3.07060716669104       -0.50462581680264
C            5.93702960188684       -1.38032070852020       -1.11622130533019
C            6.08495182139524       -0.03918038282490       -1.52173633707160
C            4.98025915282325        0.86524135284341       -1.47143909477507
C            3.72102827386921        0.45810965438801       -0.93419376045630
C            7.32706305982347        0.42242988850208       -2.01125373469860
C            7.47269498900907        1.69332626714061       -2.48835945472375
C            6.36499762561429        2.55264559505707       -2.52687800556286
C            5.15542388156584        2.14562111439130       -2.03464604372244
C           -3.65305397086146        0.07001592628577        0.93993341902536
C           -4.84948583482113        0.29168368103972        1.68592362768545
C           -5.85178974851252       -0.72255087245659        1.78582935215643
C           -5.65305717625703       -1.99291768074373        1.21055978760879
C           -5.05370180861444        1.49068730158213        2.39890589239092
C           -6.20760168839848        1.72219191461499        3.09543980584417
C           -7.22611309885570        0.75792290834544        3.12187268877133
C           -7.04196395364222       -0.43983200173960        2.49322862683535
C           -4.62113467665611       -4.68450071816951       -0.20110895824029
C           -1.84569765778466       -3.79513703666176       -1.48109339242796
C           -1.69099286935696       -5.17758371852098       -1.42786422629586
C           -0.99867063686422       -5.84317929742752       -2.42312089734419
C           -0.44300021815324       -5.14376481320069       -3.48009660377733
C           -0.59805593839155       -3.76848958037996       -3.54687307146102
C           -1.29949642888509       -3.10028767704037       -2.56412235741780
C           -4.31445905151548       -5.76481704237105        0.62104573099221
C           -5.01788175635371       -6.95006076015351        0.51024597708502
C           -6.03935762478926       -7.06703936811983       -0.41732715359808
C           -6.35894616375997       -5.99187658139940       -1.22935290911112
C           -5.65712452381799       -4.80491127668914       -1.11999176128814
C            4.98035726972250       -4.29637472644968       -0.11565135658358
C            4.69820777816893       -5.51155236948448       -0.73073334909209
C            5.48382331498689       -6.62239463066853       -0.48433873334272
C            6.56684278141863       -6.53526792370085        0.37315810902363
C            6.86665073649351       -5.32562150978018        0.97753551562443
C            6.08248582151917       -4.21446118878192        0.73381638000291
C            1.92693081997197       -3.89549307361594        0.53376184912493
C            1.53978734559972       -3.67066532982410        1.85424742668344
C            0.74015001340460       -4.58321277889849        2.51373315197915
C            0.32799296893560       -5.73839026358034        1.86975262311701
C            0.70560206175322       -5.96668436742786        0.55851857048843
C            1.49277362063769       -5.04749942391094       -0.11135158101710
B            2.49408423854418        1.28539109924435       -0.48639047423893
B           -2.54273033927410        1.04501144842012        0.48459165379786
C            3.91858247858481        6.29836115583335        0.19424026876727
C            5.35992497093486        5.79124307675680        0.09144736383664
C            3.68793768963560        7.29560247989568       -0.95049525377347
C            3.76170415987470        7.01067427913990        1.54553558789574
H            0.08322952885451       -2.78851122063782       -0.33248228077439
H            4.29705591178724        3.59454460800135       -0.10069955767336
H            1.23205641703781        6.56450663322802        0.29477217535343
H           -1.68119435114591        6.45032011074091        0.43714251427343
H           -4.51655802697003        3.23428128643358        0.48231908543735
H           -5.06524739503738        7.66001405051463       -0.58816893166165
H           -3.32059341290459        7.44495000223818       -0.68731853918043
H           -4.38912269144132        6.35643425731158       -1.56882418783566
H           -6.48504764270049        6.13885492723587        0.65205272269311
H           -5.86556534475741        4.69888920377467        1.45147701681806
H           -5.93132641111437        4.77827792428864       -0.31669433183042
H           -4.17837522061003        6.10155162820373        2.71852145182866
H           -3.20471450426620        7.30024728573873        1.87048777081477
H           -4.95172463442856        7.50280715662517        1.97180353397749
H            6.78656680577851       -2.04748678237755       -1.14091145774004
H            8.16096489317513       -0.26581619635174       -2.01972103242893
H            8.42703372003342        2.03269945192437       -2.86382668261213
H            6.47248513561519        3.53621943504978       -2.96185573035602
H            4.29466184836904        2.79043657362098       -2.11016151042938
H           -6.42734410971347       -2.74382708960126        1.27665921694061
H           -4.25549042270816        2.21528202920639        2.41549228210560
H           -6.33765428830665        2.64604349854392        3.64109861699920
H           -8.13976885691256        0.95954612592125        3.66195636427198
H           -7.80225393779319       -1.20714409252775        2.54184275526048
H           -2.11138473238854       -5.72983474002577       -0.60341063994194
H           -0.89061828296598       -6.91696057067034       -2.37207759685138
H            0.10229889237272       -5.66608499672593       -4.25261182049945
H           -0.17893239711413       -3.21547621833541       -4.37487500532675
H           -1.43841012066688       -2.03151499123175       -2.63867612131069
H           -3.52820187575669       -5.66384659137713        1.35687296505920
H           -4.77175233437974       -7.78419883302032        1.15184689043855
H           -6.58873952576251       -7.99316766253526       -0.50297927519716
H           -7.15982379914190       -6.07810805082023       -1.94941283209932
H           -5.90520429700233       -3.96360820684829       -1.75139088578652
H            3.87304229025343       -5.58066736559101       -1.42161023824628
H            5.25181268618983       -7.56052544227526       -0.96766081810134
H            7.17799626585300       -7.40467415525671        0.56628457532448
H            7.71373769163349       -5.25006193146233        1.64409757366547
H            6.30909589693281       -3.27382989341541        1.21511952294092
H            1.87246556362503       -2.77455095431510        2.35834343214547
H            0.44434374352567       -4.39711613293502        3.53573318303542
H           -0.28736551376373       -6.45760377099355        2.38975140533258
H            0.38557039238303       -6.86453765088557        0.05216337954370
H            1.74332180491045       -5.20947164977056       -1.14857546040492
H            6.04354464700864        6.63623350927123        0.15094349673392
H            5.59692724790613        5.11077360470440        0.90601178610181
H            5.53382361676393        5.28509871066403       -0.85510256348744
H            4.40724728311617        8.10977885830513       -0.88910835493980
H            2.68949085170614        7.72257979342575       -0.91456925321394
H            3.81034960519804        6.79856400944563       -1.91090892941065
H            3.88812565653106        6.30026244965048        2.36011267733907
H            4.51276639125701        7.79127100635958        1.64879439908280
H            2.78124142472964        7.46863186666137        1.64328167653727
