132
energy: -196.939767548986 gnorm: 0.005535344570 xtb: 6.7.1 (edcfbbe)
C           -1.24350601474369        0.35161975963460        0.13583929042772
C           -1.17204813776490       -1.04350643855126       -0.07471876157547
C            0.05462289115324       -1.68468682380152       -0.20864313758611
C            1.24070543054336       -0.95674615025377       -0.20497321588118
C            1.23342231197896        0.45500979778542       -0.18687517197495
C           -0.02547087755817        1.04693180257971        0.02160418493106
N           -0.06584294172503        2.39914258980765        0.13303922682753
N           -2.37352077670284       -1.73050167737636       -0.08924529347850
N            2.48061521630594       -1.56441750323697       -0.24995980977482
C            1.01846975894630        3.23084604671511        0.08730700890578
C            0.59289524550522        4.56599488660804        0.25453904123115
C           -0.85507807181825        4.51314501097770        0.36448329750068
C           -1.19692458082619        3.14522155938010        0.31184656647844
C            2.33564874759849        2.82437148011533       -0.10639683054553
C            3.27077061639220        3.86481039695587        0.01277141997207
C            2.91096135414692        5.19510031227051        0.20257116823748
C            1.55853020576808        5.55131352151550        0.29447974987135
C           -1.88066377844681        5.42986697585025        0.48003424223904
C           -3.20802878060226        4.97974801946432        0.51093361834617
C           -3.48324411083603        3.61647392708478        0.49113391184493
C           -2.48396302188755        2.63225006353584        0.44264758045541
C           -4.31915256826762        6.02058885273804        0.58009855294328
C           -4.22341614996067        6.93721393019303       -0.64804688312556
C           -5.71987349969259        5.40120967931398        0.59815471305599
C           -4.15250184332541        6.84774555155064        1.86281500577539
C            2.83051800011515       -2.90237082298319       -0.05874471573674
C            4.13408287126170       -3.09114261763902       -0.43215719893387
C            4.64693756622366       -1.81766480778887       -0.85457700581014
C            3.58633335267773       -0.88342009876472       -0.69687716544609
C           -3.49337559608827       -1.19357418493237        0.50407221155945
C           -4.48671112602769       -2.20804233305121        0.58370824725886
C           -3.92988433575153       -3.36987267018945       -0.04762624405984
C           -2.65912312439455       -3.04665697433692       -0.45044867169613
C            5.86548148911141       -1.38685637750369       -1.31639195602539
C            6.00630011995221       -0.03778831273168       -1.69639966526727
C            4.92282195548437        0.88218624252806       -1.54596038342839
C            3.69726029363619        0.47978732567782       -0.93330503612055
C            7.21864080064659        0.41977794649109       -2.26021447591076
C            7.35185373627516        1.70092676733027       -2.71285074147860
C            6.26003658891664        2.57881784906936       -2.64759696256590
C            5.08151461236880        2.17646763722014       -2.08157524144657
C           -3.67322342402204        0.11139911602672        0.94033812142866
C           -4.88641825587901        0.34521136919578        1.65546069609001
C           -5.90635234372590       -0.65357041871525        1.71948118393059
C           -5.70490565019470       -1.92471616955234        1.14915215550094
C           -5.09388198211797        1.54128953721169        2.37254665970970
C           -6.26676964966051        1.78717054258436        3.03126760737798
C           -7.30210734478163        0.84093124376192        3.01550820947980
C           -7.11544048394249       -0.35651231616468        2.38745351369120
C           -4.64985761505311       -4.62483896837997       -0.27022514017881
C           -1.79245782811723       -3.90993310468739       -1.24665403039702
C           -1.68091936780355       -5.26153105274387       -0.92874815733893
C           -0.93124958276025       -6.10677313430085       -1.72420690836465
C           -0.27269638712819       -5.61597727393550       -2.83832810520751
C           -0.37972315427287       -4.27350923404356       -3.16378455636064
C           -1.14166776619795       -3.42687598867813       -2.38313838615865
C           -5.13879565100869       -5.34989219765323        0.81191470587459
C           -5.83035272174217       -6.52972046619503        0.60763512694600
C           -6.05724959588123       -6.98907621848078       -0.67689374522217
C           -5.58183167476785       -6.26783420761167       -1.75803237295773
C           -4.87724864977802       -5.09563532201339       -1.55727250001186
C            4.93138634058536       -4.32302187580008       -0.36506743644187
C            4.85097782468772       -5.27812189106091       -1.37100367114515
C            5.61935284455837       -6.42646383469405       -1.30771705758433
C            6.48239716963282       -6.62848987833050       -0.24510503418453
C            6.58213540013096       -5.67205901938951        0.75007652678509
C            5.81381141168015       -4.52386978241373        0.68950235192351
C            1.97200212951014       -3.85202200199532        0.64525160434782
C            1.32072799084845       -3.45418782023104        1.81576527938541
C            0.51849169358155       -4.33999725773946        2.50710059283113
C            0.37298073658166       -5.64227055517100        2.05929471845910
C            1.03761804927475       -6.05294815641863        0.91565790863908
C            1.82836713825503       -5.16558679428318        0.20938831618756
B            2.49626442032943        1.30919088402028       -0.42080458046407
B           -2.54532242195306        1.08110675075104        0.52038396085431
C            3.95301140568547        6.30419960662171        0.29116576887397
C            5.39106262922183        5.78435959509279        0.20446120131543
C            3.73294364594410        7.28346263325807       -0.87151932874075
C            3.79848596336281        7.04122226971575        1.62931145605391
H            0.08790677273910       -2.75477692905614       -0.30559502522050
H            4.31366072061329        3.60089256931613       -0.03020018301780
H            1.26667319224657        6.58344539964904        0.41516517185698
H           -1.65491900829311        6.48440238994601        0.52583509325395
H           -4.50692411706288        3.28256894396883        0.49565790436695
H           -5.02184371200589        7.67609382807747       -0.62875852037741
H           -3.27411307371738        7.46471906432291       -0.67906929918976
H           -4.31714958656589        6.35152752286403       -1.56026937268387
H           -6.46310016746341        6.19442380200461        0.65005413886452
H           -5.85618492620456        4.75686529370377        1.46340127494906
H           -5.90706123798294        4.82584683706305       -0.30535296071176
H           -4.20970756069273        6.20081604318262        2.73597920500437
H           -3.19657728961308        7.36349945728949        1.88393997723160
H           -4.94184567627894        7.59332707950338        1.93349195102068
H            6.69938450195042       -2.06639238037444       -1.41724598442671
H            8.03890697687965       -0.27950506454972       -2.34489707444958
H            8.28326487608711        2.03597389907835       -3.14609347123390
H            6.35380414492606        3.57341126605542       -3.06033271326860
H            4.23079087495529        2.83869533845189       -2.07272142893372
H           -6.49176482189865       -2.66440796778182        1.18526222389572
H           -4.28480620989034        2.25166852927634        2.42378620559345
H           -6.39909020775407        2.70903313134046        3.57964014079580
H           -8.23066473426896        1.05473921694832        3.52411360392200
H           -7.88807640943864       -1.11260127935732        2.40597107046989
H           -2.17903251357206       -5.64249197531287       -0.05058721119953
H           -0.86163641786833       -7.15451074081847       -1.47254759780108
H            0.31793780004866       -6.27840367916171       -3.45386877052691
H            0.12585122685900       -3.88625150211269       -4.03650625559868
H           -1.23855075130795       -2.38455816444077       -2.65171923215242
H           -4.96097818751186       -4.98947874842466        1.81293724688123
H           -6.19418248133106       -7.09260461860598        1.45215295931666
H           -6.60400521222090       -7.90679637028342       -0.83604957860416
H           -5.76392204324632       -6.61833291589484       -2.76155266775761
H           -4.50616632019309       -4.53071444436848       -2.39986872858210
H            4.18893041404115       -5.11194778125407       -2.20947926390789
H            5.54662454101746       -7.16483089857377       -2.09204617237604
H            7.07991449838916       -7.52678054931655       -0.19503109814595
H            7.26234332781882       -5.82088667474639        1.57554169589063
H            5.89021696927017       -3.77547649664516        1.46441989791307
H            1.44249041336313       -2.44393672137249        2.17801841908152
H            0.00737497049902       -4.01407107694472        3.40162440912667
H           -0.25534187777326       -6.33355128405540        2.60149838222325
H            0.93675944075448       -7.06987140840807        0.56788211367339
H            2.32499936655252       -5.48543086732430       -0.69317856925681
H            6.08152470791836        6.62311288881125        0.27589313636521
H            5.61080857462454        5.09928316647688        1.02026660158640
H            5.57356085412176        5.27986530949655       -0.74141377805266
H            4.46935917853956        8.08400869743127       -0.83356906095571
H            2.74302105564782        7.73082996716762       -0.83375051519708
H            3.83528978976448        6.76442995924610       -1.82298775973034
H            3.93641123466434        6.34817965425299        2.45668720991390
H            4.54433532914062        7.82923837645674        1.71146221829760
H            2.81595971910070        7.49458416096277        1.72559891636448
