132
energy: -196.931190818864 gnorm: 0.003019313269 xtb: 6.7.1 (edcfbbe)
C           -1.25188100403341        0.35374550316007       -0.08665787758021
C           -1.16859826180733       -1.04306060052635       -0.25455066239842
C            0.06090068812573       -1.69087803949931       -0.33874650559771
C            1.24976947188436       -0.96500130169132       -0.34157678995939
C            1.23551048148910        0.45198714488630       -0.32141713472235
C           -0.03190889855818        1.04682235527503       -0.17210025319687
N           -0.08744255538772        2.39993678505775       -0.06904155374871
N           -2.36961073595019       -1.73017071329230       -0.24313490921090
N            2.49300577389343       -1.57582346544239       -0.33476883230786
C            0.98993956366192        3.23978898222712       -0.04457872288636
C            0.54555487106466        4.57260389982700        0.08822098450781
C           -0.90550160999780        4.51115571985527        0.09103911599945
C           -1.23364896830270        3.13979292594035        0.03541293974786
C            2.31857898611442        2.83546231783029       -0.12041973837631
C            3.23468200876492        3.87675103051503        0.10332048805868
C            2.85499264442521        5.20412680968670        0.27289933216938
C            1.49966579042194        5.55944097382284        0.22757530231960
C           -1.94155991206008        5.42235422793464        0.12496162556583
C           -3.26623841373496        4.96460393023314        0.08330831124266
C           -3.53057984320629        3.59930350635772        0.09815350848921
C           -2.52221279246450        2.62330689189292        0.12634165161393
C           -4.38409745946755        5.99969410124513        0.04755374720183
C           -4.18844842130629        6.91110443908621       -1.17290210620453
C           -5.77774576447861        5.37232788698461       -0.05547733248356
C           -4.33311787584636        6.83504383601706        1.33474596048163
C            2.84623072726877       -2.90483472894640       -0.11160358732430
C            4.20937852146013       -3.03828656335062       -0.10770864085214
C            4.76104149986158       -1.74415725716457       -0.39783769187646
C            3.65524713515819       -0.85576574045109       -0.51068625806107
C           -3.44543443527310       -1.21361804928422        0.43603572704785
C           -4.36440754508553       -2.27030558720788        0.67185100277653
C           -3.81931980606203       -3.44072515168723        0.04067872703549
C           -2.63981952711212       -3.06676402813730       -0.56555708779201
C            6.03488742862066       -1.27504905434892       -0.59496700364644
C            6.21164899741374        0.06586062491165       -0.98848384994446
C            5.09073000010126        0.94265795675593       -1.10019001665150
C            3.78014757689867        0.50824923531493       -0.73522302491829
C            7.49858837310241        0.55199675904972       -1.30681435730392
C            7.67878923792228        1.82126550180227       -1.77738382635186
C            6.56686123186366        2.65035925728710       -1.98331393907577
C            5.31033952033272        2.21905803449955       -1.65560507750883
C           -3.64674369225450        0.10838348311969        0.80396232761282
C           -4.81780551372197        0.34301785297854        1.58578033392687
C           -5.75724782473909       -0.70645687566306        1.83126018702958
C           -5.52435688647244       -2.01242058050027        1.35917745148257
C           -5.06508755563726        1.59572106004341        2.18285970556498
C           -6.20214184137181        1.83420996523803        2.90462747329052
C           -7.15778829522325        0.82289590228268        3.08124146645252
C           -6.92817421472307       -0.42113503618449        2.56849415432185
C           -4.47139530480023       -4.74536190358108        0.15041023026243
C           -1.99053971662568       -3.71679661804872       -1.69567432179330
C           -2.08521062702024       -5.09218357562991       -1.90990730861764
C           -1.62030960134458       -5.66069118876123       -3.08136629886808
C           -1.02910593092377       -4.87886236461245       -4.05838099821675
C           -0.92350262843071       -3.51221556394082       -3.85753467819821
C           -1.40905091588170       -2.93536776975500       -2.70168802470624
C           -3.83460099105772       -5.78561144039332        0.82601048210433
C           -4.48393249608260       -6.98861036269886        1.03114885072651
C           -5.77804371567714       -7.16933617045258        0.57116490667791
C           -6.41892127910312       -6.13973483114485       -0.09749418148852
C           -5.77355853971684       -4.93374827217329       -0.30243463797358
C            4.97193352752534       -4.24748090723838        0.19161355698063
C            4.67345451981874       -5.47210918173676       -0.40038153360050
C            5.39757750553030       -6.60333612935483       -0.07463748590421
C            6.43011855838505       -6.53282197076947        0.84557666390953
C            6.73790206162175       -5.31849710492113        1.43575244562056
C            6.01790544954301       -4.18459795657933        1.11039500144893
C            1.94633806094189       -4.03952042000858        0.14654512792771
C            1.79737824176716       -4.50541095574946        1.44831294368112
C            1.07521078202895       -5.65820916078103        1.70033720268667
C            0.51787584408055       -6.37053008071628        0.65289815040047
C            0.67515443671677       -5.92026576758825       -0.64777596772062
C            1.37533315329946       -4.75666771437414       -0.90269082939132
B            2.50679850013095        1.32011843334004       -0.42481402487935
B           -2.56468952458686        1.07823075139368        0.27315893871046
C            3.87677473944449        6.31066737172924        0.50726810964186
C            5.31853387854876        5.79628983534080        0.55659654648761
C            3.77914969787598        7.33429872667671       -0.63316500830404
C            3.57464683890082        6.99629379557071        1.84800204180366
H            0.07849570175075       -2.76566401439440       -0.37894811203415
H            4.27702100347967        3.61562094054533        0.16762699358418
H            1.19468319584330        6.58966451349511        0.33084164311898
H           -1.72462422023443        6.47894013415367        0.16462503365219
H           -4.55087140704534        3.25503853535708        0.06943401001288
H           -4.99517743660713        7.63908021357523       -1.23000302247482
H           -3.24805991328552        7.45265889160193       -1.12205776635878
H           -4.19208018178077        6.32023943158166       -2.08668445162684
H           -6.52522362864529        6.16242556990330       -0.09781207009285
H           -5.99758902748450        4.75001877202603        0.80880951265157
H           -5.87197266807910        4.77312384377548       -0.95827902975788
H           -4.45686432883241        6.19240428352846        2.20416076874059
H           -3.38622306314835        7.35925436941731        1.43150611258883
H           -5.13236006799637        7.57342588781520        1.33453846749700
H            6.89442348720567       -1.92194460796301       -0.49590842027088
H            8.34126461870008       -0.11540226107238       -1.19071104317447
H            8.66781576938561        2.18066708265429       -2.02139986664140
H            6.70933278166205        3.63029749037670       -2.41639469508034
H            4.45374769338105        2.84106408390864       -1.86145297409220
H           -6.24935508832933       -2.79037338290555        1.55109451075036
H           -4.31704951908496        2.36542640950919        2.08446779136477
H           -6.36678042876627        2.80355667191006        3.35324324723315
H           -8.05873557616140        1.02803104039955        3.64072580623850
H           -7.63829273986348       -1.22072986806617        2.72813219369414
H           -2.53340848089671       -5.72263925913489       -1.16061725896682
H           -1.72496846357188       -6.72586873984712       -3.23215207049389
H           -0.66515047341656       -5.32575029453648       -4.97156705053546
H           -0.47598636018500       -2.88589098444416       -4.61608630062715
H           -1.35850811503375       -1.86247965075886       -2.59484978801808
H           -2.83271772393987       -5.63730996180892        1.20681713555326
H           -3.98173220325270       -7.78514230434002        1.56135239491354
H           -6.28708719718200       -8.10683470318597        0.73929085310921
H           -7.42966339811278       -6.27500428172250       -0.45479509254913
H           -6.27410937948787       -4.13106909450908       -0.82452689677689
H            3.87722455376587       -5.53582929910836       -1.12643174742760
H            5.15469931320424       -7.54628639711239       -0.54315454944190
H            6.99228426234666       -7.41898667759970        1.10104372569639
H            7.53955360491844       -5.25613811033645        2.15769975235382
H            6.24916911074474       -3.24265718886454        1.58685173599997
H            2.25897252720605       -3.96342338992868        2.26092097084383
H            0.96572581632287       -6.00997085988949        2.71595296414788
H           -0.02894294591262       -7.28165363282776        0.84533737438310
H            0.26154008839848       -6.48249486782410       -1.47015363172995
H            1.48894726188755       -4.40480576714918       -1.91916810414555
H            5.99365025383151        6.63476445659214        0.71790494053406
H            5.45731881708521        5.09263372604111        1.37414623340390
H            5.59920922063620        5.31465019293898       -0.37685490386147
H            4.50172904630506        8.13367505534781       -0.48189451150789
H            2.78914296796370        7.77856697247545       -0.68734652734700
H            3.98962036865599        6.85467829505748       -1.58694574464724
H            3.60360404103604        6.26845062126770        2.65644892660939
H            4.31607424892662        7.76656604413317        2.05082028131805
H            2.59358888120828        7.46321843913393        1.84610160630372
