132
energy: -196.944689040488 gnorm: 0.001882247473 xtb: 6.7.1 (edcfbbe)
C           -1.24448863420010        0.34751925986334        0.24716991820364
C           -1.17188841002366       -1.05133687774106        0.06186293569185
C            0.05597015981160       -1.69710603627622       -0.05284840647351
C            1.24094333336485       -0.96851126351561       -0.09973925885362
C            1.22700281510957        0.44350044825940       -0.11079485287431
C           -0.02702941734921        1.03973926504083        0.11426473861076
N           -0.06565003825407        2.39390797809948        0.20269715131539
N           -2.37631241532774       -1.73256107156256        0.02915838485894
N            2.48381135357651       -1.57192044798301       -0.18446867766489
C            1.01741557491130        3.22444639124367        0.12222635050203
C            0.59717679941197        4.56253992798886        0.27547323443401
C           -0.84856624143875        4.51302498366373        0.40809335366487
C           -1.19386960797080        3.14515848894319        0.38046326023180
C            2.32826465705487        2.81519613943348       -0.10203539641259
C            3.26808742919476        3.85478386495038       -0.02442791568155
C            2.91481543623119        5.18714654376865        0.16200740036134
C            1.56514652682134        5.54643413748631        0.28046975671084
C           -1.86969532643306        5.43441092677767        0.52185568738673
C           -3.19777605329097        4.98891963567802        0.56908958671850
C           -3.47742841815998        3.62636332618961        0.56273760696907
C           -2.48181897986199        2.63741249723007        0.52142349736453
C           -4.30313446815202        6.03554602513644        0.64656143606070
C           -4.21041971698946        6.96003135009892       -0.57581744475003
C           -5.70715548141440        5.42401843993505        0.66903157469587
C           -4.12318896906688        6.85368240905646        1.93364866875619
C            2.85843847933466       -2.89796185707963        0.01671334584877
C            4.14699663927732       -3.08732189139671       -0.41976700732003
C            4.62086108326549       -1.81998089407865       -0.90561018454087
C            3.56164537748028       -0.89233546746717       -0.70368470111058
C           -3.51766723489761       -1.17898235780951        0.56255076455111
C           -4.53679992756918       -2.17168629694274        0.56725819755471
C           -3.96650420194703       -3.34051896549963       -0.04500061718313
C           -2.66546040670305       -3.03692589874817       -0.36304320324510
C            5.81581753656123       -1.37846278531863       -1.41763069936150
C            5.92425794238885       -0.03586113563972       -1.82918721842241
C            4.83911347932283        0.87410393253048       -1.64373016943016
C            3.65234047358004        0.46783593395444       -0.96279942048670
C            7.10396694216145        0.42461450256028       -2.45616966608280
C            7.19932882097749        1.69857517620814       -2.93753178874047
C            6.10130836061794        2.56550245620007       -2.83565046206519
C            4.95615559069857        2.16144091060677       -2.20628712441937
C           -3.69673002364206        0.12768428822327        0.99441110924035
C           -4.94229694754895        0.38157884425683        1.64418893543161
C           -5.98998641909142       -0.58866768097518        1.62351865726632
C           -5.78468746197648       -1.85614337818828        1.04463992783936
C           -5.15949740451198        1.56838473325903        2.37296295626626
C           -6.36486308469282        1.83545877204340        2.96189921607991
C           -7.42436762060905        0.92239101079233        2.85641914168122
C           -7.23202663900963       -0.26761787191310        2.21541868751319
C           -4.68766579367608       -4.57841407899348       -0.32472511686269
C           -1.75495036975128       -3.90852216155492       -1.10198877989735
C           -1.61754026707075       -5.24406556288743       -0.73107012744623
C           -0.83390262762250       -6.09915433671276       -1.48196460147310
C           -0.16410291054350       -5.63177462649218       -2.59981314269792
C           -0.29084849237476       -4.30341045357838       -2.97256286699291
C           -1.08887644983011       -3.44810036272181       -2.23830367854609
C           -5.46612838489689       -5.17103200572325        0.66747118097905
C           -6.16439695715692       -6.33609517121678        0.40952511283463
C           -6.09824446653726       -6.92451944560703       -0.84210402066301
C           -5.32992120127104       -6.34011821186826       -1.83591179145596
C           -4.63094999966698       -5.17558493091781       -1.58267566467651
C            4.93945660104537       -4.31177635337686       -0.36399784285156
C            5.64967092108853       -4.72995032815084       -1.48693701928334
C            6.41089707079843       -5.88308833200208       -1.44676825766916
C            6.47937227806257       -6.63203325587103       -0.28519733922594
C            5.78149942956032       -6.22007636699824        0.83885130706762
C            5.01846360218151       -5.06887012930160        0.80268757938842
C            2.04178561432984       -3.88800263508709        0.71242848567604
C            1.41654147332170       -3.56531099161413        1.91777183170946
C            0.71058095781470       -4.52535848167226        2.61619822006602
C            0.63575418264927       -5.82230960970499        2.13563134857777
C            1.26421227746992       -6.15326498687706        0.94708913077278
C            1.95595718336692       -5.19322982074709        0.23371349523586
B            2.47630678901166        1.29785040430822       -0.40258351756309
B           -2.54830249079414        1.08628859366849        0.60987173857117
C            3.96087968141252        6.29402166202547        0.22463330644975
C            5.39501376130325        5.76985506462777        0.10478348486941
C            3.71782800788924        7.27638088831829       -0.93030838444003
C            3.83716435959288        7.02764761342171        1.56802457916805
H            0.08921032162098       -2.77002234463865       -0.11207053990671
H            4.30844366835926        3.58759547953342       -0.09915789279574
H            1.27772348622758        6.58070309403353        0.39305812793407
H           -1.63990520285361        6.48850268340607        0.55280044191605
H           -4.50245635805824        3.29734587843082        0.57282300662236
H           -5.00607136901620        7.70174719780569       -0.54646400418972
H           -3.25979559396085        7.48491871437919       -0.60904196071721
H           -4.31206889609189        6.38129027604058       -1.49170202772174
H           -6.44605857482066        6.22158737799602        0.71993467571228
H           -5.84538046054872        4.78299023182802        1.53639480936502
H           -5.89913273896708        4.84689568145695       -0.23251293216867
H           -4.17746408873206        6.20141401293213        2.80299870555268
H           -3.16407612789936        7.36379074885450        1.95115438304765
H           -4.90794981773209        7.60305259301323        2.01499328006584
H            6.65967592345522       -2.04340261229382       -1.53149355102892
H            7.92797940867743       -0.26671420087077       -2.56616492328734
H            8.10482007288304        2.03653742555355       -3.42031528075155
H            6.16373373826775        3.55330845060610       -3.26973088312048
H            4.10031015637115        2.81600235090165       -2.16510931208114
H           -6.59882890361233       -2.56490559623887        1.00430037783038
H           -4.33402982126509        2.25172825673288        2.49231640076262
H           -6.50587181773734        2.74823114888731        3.52322079831417
H           -8.37776573848711        1.15486602906671        3.30812781290565
H           -8.02650665094159       -0.99950747033823        2.16716194450219
H           -2.12794380198647       -5.60464238124247        0.14919041955975
H           -0.74776697711855       -7.13615819619811       -1.19432537438473
H            0.45207146688437       -6.30071224010889       -3.18196011222935
H            0.22616755365166       -3.93427318563829       -3.84628577443328
H           -1.20317061930618       -2.41760235436726       -2.54359702280718
H           -5.50472784644874       -4.72231009123748        1.64983617539068
H           -6.76074638566598       -6.78786249750936        1.18904059638538
H           -6.64457926668323       -7.83430886693137       -1.04369229610109
H           -5.27892617734356       -6.79337331242795       -2.81546149884490
H           -4.04374349971827       -4.71545366762600       -2.36317884801501
H            5.58757903691502       -4.15289618650208       -2.39892322044239
H            6.95145010921024       -6.20084459301872       -2.32635725576761
H            7.07351167884931       -7.53342205207504       -0.25513116756535
H            5.83472954287613       -6.79841320438868        1.75034143306760
H            4.48431499426819       -4.74426290127562        1.68356379437333
H            1.49228614996485       -2.55940974214803        2.30546915818080
H            0.22609932832825       -4.26340096094777        3.54547531013813
H            0.09230113538899       -6.57329411697350        2.68984554585568
H            1.21894441905246       -7.16545474451751        0.57452000821579
H            2.43334127359063       -5.44811054575860       -0.70039036116938
H            6.08940446062488        6.60601125607512        0.15967137395066
H            5.63133921565420        5.08444654527706        0.91524679240327
H            5.55326787826894        5.26446129722417       -0.84487811867164
H            4.46431252147605        8.06782871451960       -0.91322075440173
H            2.73539507710048        7.73542758584994       -0.86321384002024
H            3.78665957210459        6.75756556708001       -1.88438612039573
H            3.98562893824427        6.33047942186652        2.39021308343736
H            4.58987536322607        7.81015497650676        1.63904284382514
H            2.85938120276582        7.48674306135845        1.68396385679074
