132
energy: -196.941452490345 gnorm: 0.007311552683 xtb: 6.7.1 (edcfbbe)
C           -1.24681697363365        0.35079025862188        0.20862792877765
C           -1.18199419893918       -1.04407766369753       -0.00154296750678
C            0.04230513885600       -1.69079541545698       -0.13893782274284
C            1.23170273997500       -0.96818018464752       -0.15319581400124
C            1.22740951972371        0.44414023314860       -0.13551279229592
C           -0.02681291101904        1.04117054218431        0.08617500057491
N           -0.06593292227096        2.39406750502938        0.18995702508013
N           -2.38931406327920       -1.72062592786219       -0.02671277920190
N            2.46914980230249       -1.58268857978665       -0.22414641886285
C            1.01843590317841        3.22474283944043        0.12385553996610
C            0.59454328493373        4.56199460498687        0.27821879933791
C           -0.85244816603565        4.51208720020023        0.40099605400966
C           -1.19482734100751        3.14396554403617        0.36654640108172
C            2.33248485247553        2.81433485655888       -0.08128621491870
C            3.26890497432282        3.85665982862277        0.01550245831313
C            2.91099962063206        5.18919590382626        0.19114592842028
C            1.55985449821225        5.54768477252016        0.29339758469705
C           -1.87628661276447        5.43125272935122        0.51255842186540
C           -3.20433463299845        4.98411820071245        0.55658328824862
C           -3.48048023507013        3.62117672206278        0.55082721936114
C           -2.48240952377972        2.63593378674226        0.50630523523904
C           -4.31484899418545        6.02576167642306        0.62453268688933
C           -4.22244464561737        6.94023928447501       -0.60567578707259
C           -5.71609741020943        5.40712152203358        0.64693495741531
C           -4.14512996069696        6.85680004403155        1.90457358554143
C            2.83007662070843       -2.91979436177068       -0.04355915244304
C            4.12378990027044       -3.10432090887753       -0.45781111277391
C            4.62055299757486       -1.83327566615796       -0.89792776119381
C            3.56402088173757       -0.90019881682729       -0.70232838251279
C           -3.52157578401368       -1.17430215034926        0.53252819029752
C           -4.53517326029163       -2.17192580003883        0.55465973772432
C           -3.96959288175077       -3.33868987658627       -0.06662745770636
C           -2.67881699486718       -3.02530946781939       -0.41434790128724
C            5.82856680082385       -1.39890566188057       -1.38582917069258
C            5.95956548220227       -0.04868083599057       -1.76256845074144
C            4.87981185524360        0.86955837002286       -1.57801928896829
C            3.67136183519164        0.46419472661853       -0.93351958519001
C            7.15588764944553        0.41418086557593       -2.35653150965860
C            7.27428742305236        1.69725869445357       -2.80679917960713
C            6.18367640116598        2.57392587275727       -2.70715140560963
C            5.02221968973899        2.16681914419630       -2.11066476799973
C           -3.69266925735347        0.12840102389961        0.97819329911459
C           -4.92677343559187        0.37932048023513        1.64900824149130
C           -5.97306740308667       -0.59235235443201        1.63904973156755
C           -5.77483869082895       -1.85854673711300        1.05538019609165
C           -5.13478103583619        1.56399110301082        2.38446250290162
C           -6.33377819372855        1.83038949993182        2.98621534273017
C           -7.39356369136125        0.91719050907551        2.89005423960970
C           -7.20765299819937       -0.27277004434099        2.24683522593738
C           -4.68583067044050       -4.58743425236877       -0.30800007392015
C           -1.76600547709127       -3.87593078104572       -1.17616161688869
C           -1.54619696087666       -5.19384174535178       -0.78514199159135
C           -0.73349473621059       -6.01760686486608       -1.54135330008569
C           -0.12436958287635       -5.53588273366733       -2.68743852839086
C           -0.34148607198850       -4.22643069791802       -3.08483337821303
C           -1.16298563403978       -3.40161032771682       -2.34189779351326
C           -5.46043149166192       -5.14672406180421        0.70892570603428
C           -6.15660886800752       -6.32142892251698        0.49197198969541
C           -6.08603899522353       -6.95597702530752       -0.73843915039484
C           -5.31712113574839       -6.40808975702590       -1.75346259870093
C           -4.62065450870435       -5.23275846666755       -1.54089157083393
C            4.91704482795229       -4.34115051759125       -0.40324511655706
C            5.07027228050424       -5.13205423189453       -1.53982647927175
C            5.82512856985740       -6.28959808199160       -1.48696003285128
C            6.44425768506473       -6.66303572712183       -0.30342566225757
C            6.30468356676005       -5.87429273920363        0.82778688731038
C            5.54309931360765       -4.72008447419369        0.78011920475276
C            2.01786982667475       -3.90656614467213        0.66070485087163
C            1.31194587187586       -3.54263436462153        1.80949588108034
C            0.58967007645760       -4.48361250579527        2.51692982245916
C            0.58813777718656       -5.80851566892727        2.11332370748971
C            1.30444735979115       -6.18384986390496        0.99024945314180
C            2.00614613923512       -5.24083720364827        0.26235549447195
B            2.48644481192153        1.29718687616844       -0.39106546239782
B           -2.54703089183765        1.08615623798964        0.58712116809486
C            3.95268539493537        6.30017058295437        0.25625092835944
C            5.38965706800645        5.78258429544733        0.14652431376637
C            3.71105253171234        7.27535923238764       -0.90485438433117
C            3.81808747917573        7.03929446921413        1.59555914512508
H            0.07292859074602       -2.76129566008989       -0.22770590692786
H            4.31160493378170        3.59301788285219       -0.03483078154461
H            1.26898444911610        6.58124603545751        0.40239050801262
H           -1.64881230852313        6.48585019621548        0.54496060090613
H           -4.50415041248310        3.28805279178061        0.56390895781357
H           -5.02889931605329        7.67072489064382       -0.59133646310540
H           -3.27877084600334        7.47793438815471       -0.63302347703379
H           -4.30617144106697        6.35190426622833       -1.51731352327576
H           -6.45894255040270        6.20149810446794        0.69262568227790
H           -5.85371121743743        4.76940442703285        1.51696435788419
H           -5.90364253942009        4.82509021916705       -0.25240627737718
H           -4.19802390224746        6.21280489467554        2.78021269518198
H           -3.18996687065110        7.37439887856228        1.92034701245395
H           -4.93590779930293        7.60109069784801        1.97553128596019
H            6.66084386982491       -2.07750744097131       -1.50908522649342
H            7.97560390764157       -0.28242093940466       -2.46693463969430
H            8.19276179233971        2.03500769878878       -3.26482771165295
H            6.26361116214030        3.57074740609123       -3.11674381040635
H            4.17092398917203        2.82734169537263       -2.07425158413270
H           -6.59096258830651       -2.56545208182998        1.02817529736975
H           -4.30703101368934        2.24581063609368        2.49550660470872
H           -6.46876972827583        2.74294471645453        3.54943515510882
H           -8.34290100156370        1.14800925285797        3.35063677277681
H           -8.00230916121476       -1.00461161378788        2.20781668412925
H           -2.01192827208418       -5.56078050348328        0.11709929473853
H           -0.57682136401282       -7.03990335668271       -1.23220001142239
H            0.51381605791952       -6.18331775650567       -3.27056123896594
H            0.12602573698903       -3.84934513303807       -3.98304909348226
H           -1.34097476400291       -2.38420373378936       -2.66073574807001
H           -5.50378264105580       -4.66700132921700        1.67408963646187
H           -6.75660345283164       -6.74337471311814        1.28438416240963
H           -6.63410844500341       -7.87108245415010       -0.91007430460989
H           -5.26363476877150       -6.89462981780424       -2.71479043175558
H           -4.03576615176816       -4.79940573680084       -2.33733736393983
H            4.58687273771828       -4.83774077552253       -2.46300919234937
H            5.93051127986624       -6.90249199822211       -2.37216246795308
H            7.03466706346479       -7.56680447075808       -0.26373088607651
H            6.79170196017814       -6.15778235231303        1.75131029528941
H            5.43223446665374       -4.10421609532089        1.66252680124929
H            1.33013195035931       -2.51686648092374        2.14676986458700
H            0.03380817908242       -4.18329139703612        3.39367291966620
H            0.03220843091499       -6.54366999335277        2.67654629231340
H            1.31670016884408       -7.21756339392231        0.67839753512306
H            2.54133865295942       -5.53885854250392       -0.62550638513947
H            6.07907843214528        6.62276081955701        0.19817004771875
H            5.62613989311170        5.10475506115567        0.96305927007194
H            5.55473196912565        5.27081491355375       -0.79829020725661
H            4.44845542526489        8.07526995196338       -0.88397367059468
H            2.72295108244599        7.72407337039540       -0.85025878860818
H            3.79488313534832        6.75349370375064       -1.85627498872666
H            3.96426126512754        6.34603388060065        2.42133705283922
H            4.56745878467836        7.82481936856252        1.66765048215868
H            2.83793197989059        7.49518519675292        1.70383839903443
