132
energy: -196.940993958792 gnorm: 0.003704468261 xtb: 6.7.1 (edcfbbe)
C           -1.26034589564132        0.35168596600190        0.16593381432132
C           -1.19235942374306       -1.04612663586798       -0.02696181943823
C            0.03297011047769       -1.69245987982930       -0.15366856223251
C            1.21993516935098       -0.96558203845934       -0.17785841826785
C            1.21377489475604        0.44666766189552       -0.17557500528927
C           -0.04223528599154        1.04335997862463        0.03811654590887
N           -0.07945602668981        2.39704159102411        0.13357441608637
N           -2.39770909799018       -1.72594702154645       -0.04056561104350
N            2.45874082500730       -1.57506928395252       -0.24158117881633
C            1.00517524826841        3.22646867479124        0.07337346167052
C            0.58342116296468        4.56413313886245        0.22926088375722
C           -0.86394496140464        4.51512928004827        0.34598999530598
C           -1.20849267026371        3.14741250630449        0.31002249495465
C            2.32051845146591        2.81557732741278       -0.12186770586706
C            3.25949256242271        3.85287374966368       -0.01116260771533
C            2.90422124705144        5.18530546683276        0.17190236268565
C            1.55280040726967        5.54631083330127        0.26127743120841
C           -1.88755338389949        5.43448274826716        0.45967708463053
C           -3.21483677884155        4.98644621568252        0.50791260839784
C           -3.49237744326353        3.62357753708161        0.50262679583965
C           -2.49504090594593        2.63757331343784        0.45423168509966
C           -4.32389553332774        6.02853260956425        0.59150839057338
C           -4.24005356987835        6.95659142615505       -0.62843630885960
C           -5.72514017571644        5.41061646732988        0.61723165642317
C           -4.14262602664923        6.84203630015685        1.88115416587935
C            2.81435912269954       -2.91223133674178       -0.05561114787674
C            4.11270337789419       -3.10011995043434       -0.44812143347244
C            4.61872571934101       -1.82728969532735       -0.87587288929643
C            3.55865049019120       -0.89444743416355       -0.70495641289867
C           -3.52239258878629       -1.18071850602530        0.53404708062447
C           -4.53090243117830       -2.18314670895448        0.58465710450925
C           -3.97388431043936       -3.34997907274147       -0.04693951954204
C           -2.68995022646079       -3.03335214299733       -0.41854688712219
C            5.83744138281548       -1.39672865384132       -1.33669961512735
C            5.97954440806236       -0.04603357160234       -1.70993110948638
C            4.89307394677310        0.87051590862676       -1.56313473299807
C            3.66955540332658        0.46766992455655       -0.94688068936314
C            7.19668622029126        0.41529039431102       -2.25874709210367
C            7.33149511485000        1.69857126085137       -2.70470706923495
C            6.23419533129197        2.57069790323585       -2.65349756170023
C            5.05091714532083        2.16422541988878       -2.10075688051587
C           -3.69452890959107        0.12689471057707        0.96490949231747
C           -4.91445196842252        0.37547169743520        1.66262173763130
C           -5.95197745337434       -0.60527795485830        1.69402652149759
C           -5.76031876330604       -1.87419194085485        1.11216926170831
C           -5.11170299656059        1.56617878005857        2.39076635952682
C           -6.28973604293589        1.82269876465537        3.03653215807000
C           -7.34228798319998        0.89647892972453        2.98794913533644
C           -7.16828988139346       -0.29374713142942        2.34201367949497
C           -4.68159302227014       -4.60320084817973       -0.28188226979883
C           -1.79107856843536       -3.87441985317214       -1.20496624392130
C           -1.57699950068358       -5.20582140031534       -0.85748145675345
C           -0.78562229009761       -6.01327955156848       -1.65176565730276
C           -0.18972707185375       -5.50315764096644       -2.79287412130112
C           -0.39728339348511       -4.17975809136391       -3.14591655230715
C           -1.19912876202104       -3.37151300357203       -2.36418829515936
C           -5.43102439008279       -5.18358719302332        0.73854968918452
C           -6.11167267336984       -6.36768549658666        0.52641097736030
C           -6.05687460265684       -6.99123306034998       -0.70775164453538
C           -5.32032836909613       -6.41835039270846       -1.73134268273826
C           -4.64253197666199       -5.23301421448681       -1.52528828742403
C            4.91136625974164       -4.33148862864999       -0.38524009999176
C            4.93745893045999       -5.21397329118032       -1.46027458707433
C            5.70424852759047       -6.36330811725839       -1.40268257296472
C            6.46214967292995       -6.63601119183935       -0.27584075009814
C            6.45133450969101       -5.75498714388571        0.79277818502713
C            5.67977697470552       -4.60861523121340        0.74006332658597
C            1.99444435411419       -3.89156696646275        0.65111629309315
C            1.34688346161413       -3.54451059452281        1.83863387158519
C            0.63384671021947       -4.48955857627101        2.54754231921215
C            0.57107375701859       -5.79914802287694        2.09724620719294
C            1.22789038469759       -6.15556806467718        0.93282857882963
C            1.93027806128157       -5.21032509839446        0.20925821421488
B            2.47416530385006        1.29853996136135       -0.42760935861799
B           -2.55960366251985        1.08766258273256        0.54556404742270
C            3.95085521145601        6.28948120587265        0.26414265420730
C            5.38666959478636        5.76426184206530        0.16795084305652
C            3.73383257474853        7.28109526346285       -0.88814712605425
C            3.80237129281485        7.01414192818581        1.60945254094906
H            0.06698316397415       -2.76448580182961       -0.22847515997618
H            4.30117908386811        3.58414291436483       -0.05380511104097
H            1.26495740265699        6.58028999672024        0.37590817289228
H           -1.66036260480854        6.48914899487436        0.49261226341908
H           -4.51605408634263        3.29089869281253        0.52066413278437
H           -5.03375623647244        7.69996859630002       -0.58976210403412
H           -3.28847713069867        7.47923624391433       -0.66925335327532
H           -4.35165747094739        6.38073309970263       -1.54503847075688
H           -6.46764754168276        6.20430039647113        0.67588571398003
H           -5.85660744306595        4.76426253596998        1.48174720022239
H           -5.91847491526567        4.83747015338013       -0.28665492775015
H           -4.19611980776988        6.18574725389170        2.74753763061540
H           -3.18299512871470        7.35138800854022        1.89993873409657
H           -4.92689620813921        7.59128692932910        1.96657853667949
H            6.66978560602169       -2.07818249638914       -1.43792439943863
H            8.01921701895534       -0.28223281045234       -2.33453993300577
H            8.26734744550263        2.03956160072144       -3.12242966084680
H            6.32924255543102        3.56511190781771       -3.06612158413068
H            4.19766833138390        2.82329576012881       -2.10256060160042
H           -6.56957794265642       -2.58968438122078        1.11030283007935
H           -4.29093849981337        2.26185027277083        2.46344826725342
H           -6.41419984760911        2.73702511538299        3.59932445658239
H           -8.27468690674098        1.12046106816094        3.48561327432838
H           -7.95666530789678       -1.03389002946400        2.33399037450323
H           -2.03082377879469       -5.60136804601249        0.03873283357901
H           -0.63347405430319       -7.04680338443006       -1.38025840702324
H            0.43167956000013       -6.13423780515385       -3.41085390377487
H            0.05967058884840       -3.77748497182872       -4.03814674977039
H           -1.37531658061187       -2.34374770737334       -2.64793558300029
H           -5.45653682581609       -4.70886012918447        1.70984082503523
H           -6.68556364927272       -6.80917107033016        1.32995246924985
H           -6.58682114662706       -7.91816298663519       -0.87028824482995
H           -5.28001978514663       -6.89699874366709       -2.69872728665976
H           -4.08287424017574       -4.78268287079561       -2.33158817256390
H            4.35364839328587       -4.99219726329179       -2.34355334089420
H            5.71180577546602       -7.04860330452623       -2.23881928046114
H            7.06327964127535       -7.53233383579080       -0.23256476690737
H            7.04704952051910       -5.96210523439829        1.67052489325202
H            5.66690991579415       -3.91881609309085        1.57247248037255
H            1.41073519579224       -2.52948855253189        2.20471979186261
H            0.13243500101934       -4.20623725856617        3.46123964331291
H            0.01728034777079       -6.53891696099244        2.65541715884854
H            1.19507815625178       -7.17746131779201        0.58493112282680
H            2.42572612952379       -5.48817565880304       -0.70702240253091
H            6.08035715385197        6.60098738382650        0.22979825148146
H            5.61130200652430        5.08159320407735        0.98441810330554
H            5.55904171642375        5.25525229109219       -0.77756272728843
H            4.47052922362149        8.08036960372129       -0.83848135152189
H            2.74480521170340        7.72877620360225       -0.84877954090336
H            3.83986675742676        6.77310455492936       -1.84452545988510
H            3.94060019503791        6.31314386275953        2.43036616828262
H            4.55055623923825        7.79954721925516        1.69725306020199
H            2.82082549676548        7.46850621311890        1.71246202716721
