132
energy: -196.936115223007 gnorm: 0.000891098393 xtb: 6.7.1 (edcfbbe)
C           -1.24762036899770        0.31455833658093        0.13404752038276
C           -1.17655086358191       -1.07979578701791       -0.07483539961105
C            0.04853396518329       -1.72673314750092       -0.20346189608229
C            1.23481670368243       -0.99962595196268       -0.22921178671106
C            1.22496682929098        0.41384359459339       -0.22288693482870
C           -0.03049750284928        1.00767905087340        0.00268187570984
N           -0.07208469134311        2.36018151474818        0.10880642289523
N           -2.37977009236213       -1.76028798093151       -0.09455063624030
N            2.47494858396183       -1.60658808741155       -0.28617542593044
C            1.00893282045012        3.19388530810576        0.03803137298905
C            0.58333258220421        4.52880844589490        0.20409046284874
C           -0.86078860604294        4.47325129244695        0.34565690131321
C           -1.20190636525688        3.10489894459044        0.30464036248138
C            2.32328302772698        2.78874363010440       -0.17449135091049
C            3.25686946456989        3.83361580759342       -0.08474228231311
C            2.89614420981043        5.16528910319866        0.09288739555771
C            1.54518728719622        5.51799784385481        0.21213371516387
C           -1.88202409278861        5.39038287610499        0.48780743822899
C           -3.20782846160961        4.94096877307333        0.55391962079045
C           -3.48392414095873        3.57780280758333        0.53428532123903
C           -2.48649233692416        2.59271594263489        0.46105159143047
C           -4.31306909365410        5.98387997974843        0.67005677063095
C           -4.24975098413360        6.92386211579478       -0.54227416015256
C           -5.71494880352978        5.36905829669527        0.71766523140201
C           -4.10468086137179        6.78558150187290        1.96323028018620
C            2.83148843309268       -2.93740091072409       -0.06664863916999
C            4.16042326552857       -3.11199383324400       -0.34918242380936
C            4.67347727762527       -1.83535158049272       -0.77225208656422
C            3.59107255078307       -0.91744983522115       -0.69299734715329
C           -3.49582477430788       -1.23065507199674        0.50559371061372
C           -4.49201476584261       -2.24381864481814        0.56254512107799
C           -3.93498385571076       -3.39850585233254       -0.08386984745158
C           -2.66728854301528       -3.06923874222423       -0.48757613405860
C            5.90338086390462       -1.39729734839540       -1.19419209452483
C            6.03782617914058       -0.05942221498182       -1.61539527449625
C            4.93529275498544        0.84543195030526       -1.53566091858870
C            3.69522320097714        0.44188433415026       -0.95447743281979
C            7.26154585180109        0.39857098744175       -2.15241750885751
C            7.38802298525534        1.66405190705456       -2.64920418342607
C            6.27934929575300        2.52304955226652       -2.65620224462549
C            5.08918363610095        2.12128851637839       -2.11491467084180
C           -3.67167886921026        0.06888871276817        0.95935619629137
C           -4.88315731790724        0.29336710398933        1.68017262158398
C           -5.90275925505339       -0.70672365768559        1.73411896992681
C           -5.70621097995044       -1.96938018130398        1.14143355547639
C           -5.08642615165485        1.47938316404487        2.41468706660417
C           -6.25365404414650        1.71424449920522        3.08748352579041
C           -7.28799445241642        0.76705943561544        3.06596224267315
C           -7.10668999491896       -0.41962331190059        2.41579135008747
C           -4.66430994146755       -4.65674007915542       -0.29052939280190
C           -1.82392815644014       -3.82767732511247       -1.40616127581711
C           -1.66747630487073       -5.20543148923129       -1.28158259221236
C           -0.92421665744727       -5.91144532140485       -2.20985206320865
C           -0.31899254431142       -5.25619825106118       -3.26802224357323
C           -0.47783514001998       -3.88646885503175       -3.40695169233430
C           -1.23145016048196       -3.17873807645464       -2.49270087077866
C           -4.48151906591313       -5.72685360343119        0.57953242116967
C           -5.18661180468036       -6.90275006479620        0.39945432556786
C           -6.08775523988222       -7.01942040808371       -0.64596169410669
C           -6.28563372880628       -5.95317999790705       -1.50676479420022
C           -5.58037410496028       -4.77644733699515       -1.32938884060931
C            4.99260181374886       -4.30154835978628       -0.16604083495804
C            4.74041844572835       -5.49601318252293       -0.83222462432724
C            5.55888282477985       -6.59384500905255       -0.63931328974193
C            6.64598191416015       -6.51255194082986        0.21365482443438
C            6.91648090431949       -5.32205317614094        0.86799660668847
C            6.09898945257817       -4.22440530603690        0.67806538327539
C            1.93884259072606       -3.87502950078216        0.62255654842388
C            1.49664572956927       -3.54053979292174        1.90348233158281
C            0.68029775281225       -4.40107215054309        2.60965860941724
C            0.30399311365739       -5.61384194733321        2.05456082563177
C            0.74244197536548       -5.95476350265252        0.78761410337985
C            1.54942891636980       -5.08945373128374        0.07039943218922
B            2.48306814758083        1.27007488542250       -0.47303788354961
B           -2.54640006100163        1.04111286379188        0.53648082231598
C            3.93389867163792        6.28041815753535        0.14143469417932
C            5.37093389081865        5.76897987681957        0.00463157438763
C            3.66805616712465        7.25493148033600       -1.01545451218378
C            3.81977026558278        7.01945467467550        1.48227685905268
H            0.07516333695250       -2.79877987052776       -0.28205856760354
H            4.29978887368896        3.57311279577050       -0.14247415084661
H            1.25183898491046        6.55010266666093        0.32861214547514
H           -1.65379435837833        6.44444582142665        0.52941911656917
H           -4.50761415424528        3.24505009626652        0.56062627705258
H           -5.04528516669590        7.66411579839227       -0.48542062911879
H           -3.30051990368595        7.45020761610922       -0.59056625116443
H           -4.37153773906313        6.35655499937807       -1.46288127496441
H           -6.45354928464433        6.16386732240577        0.80411000824312
H           -5.82902193591982        4.71076529403457        1.57562269160119
H           -5.92970223183570        4.80946635883959       -0.18981200213796
H           -4.14102195582954        6.12214575081663        2.82507492552736
H           -3.14470674465491        7.29444059697222        1.96697012803539
H           -4.88644758030729        7.53469103555026        2.07103382017732
H            6.75220615393804       -2.06435373776801       -1.23856195377407
H            8.09578371875253       -0.28858803290755       -2.18271322901174
H            8.32746471004815        1.99962307337913       -3.06372221464864
H            6.37010544114100        3.50179796468733       -3.10563821073474
H            4.22614868057754        2.76589241061332       -2.16298894456983
H           -6.49310059615463       -2.70943772986917        1.17057058107403
H           -4.27712644590561        2.18957303025202        2.46891941334687
H           -6.38244435997845        2.62726615976203        3.65137698332750
H           -8.21168021203124        0.97184204031897        3.58728531173048
H           -7.87971711976109       -1.17545877867026        2.42814808357387
H           -2.12369651504469       -5.72080918127241       -0.45181831681440
H           -0.81377078677745       -6.98103059626164       -2.10379978804283
H            0.26951888116127       -5.80890150567428       -3.98584075928066
H           -0.01849579649682       -3.36900353441285       -4.23664120442186
H           -1.37034950147312       -2.11470383037839       -2.62014191970508
H           -3.78700600427656       -5.62810914453309        1.40275456288086
H           -5.03474207718124       -7.73015192807082        1.07769847912369
H           -6.63763213027928       -7.93845331952528       -0.78663522960989
H           -6.99374463357721       -6.03833272595956       -2.31854843353714
H           -5.73361337200136       -3.94237481376577       -1.99910789669939
H            3.91523566793656       -5.55616598788328       -1.52493914923640
H            5.35096887883693       -7.51617604230779       -1.16254719756822
H            7.28438104244669       -7.37092829012898        0.36292659335697
H            7.76813689126438       -5.25010571401681        1.52920081190494
H            6.30525016374485       -3.29770652213921        1.19453538417129
H            1.79753499235052       -2.59780033824069        2.33811925142579
H            0.34049062064036       -4.12781456102839        3.59798988699220
H           -0.33040245629291       -6.28941115610342        2.60934725413179
H            0.45160447119839       -6.89826422771550        0.35075716502642
H            1.84890655282819       -5.34473610696098       -0.93378582889514
H            6.05787372898928        6.61242712090016        0.04132574973420
H            5.62725666600531        5.09286702940966        0.81692904137462
H            5.51903302894438        5.25661548826671       -0.94290800721328
H            4.40312874751529        8.05722773023446       -1.00746233886869
H            2.67969403420733        7.70035790623176       -0.94325095723714
H            3.73691968219720        6.73310332037037       -1.96799361681033
H            3.98954695506574        6.32907955220236        2.30611910896452
H            4.56251962232079        7.81272393967212        1.53820380840498
H            2.83741136909136        7.46569803796457        1.60995276718971
