132
energy: -196.934590578921 gnorm: 0.001571952506 xtb: 6.7.1 (edcfbbe)
C           -1.24651545962431        0.32912871442964       -0.00536254293416
C           -1.17117060440632       -1.06380663853646       -0.21116210169619
C            0.05606101997857       -1.70713505591735       -0.34227422429404
C            1.24399075143198       -0.98189338239900       -0.32969677754889
C            1.23411618434310        0.43316240167004       -0.29234922212515
C           -0.02841717181608        1.02493604245568       -0.10609552477353
N           -0.07930781240291        2.37707798454941        0.00876691343806
N           -2.37033612436511       -1.75361267796752       -0.20067381656760
N            2.48490990046976       -1.59274399060711       -0.34906247598680
C            1.00001611397283        3.21552598413008       -0.00368231272649
C            0.56195509491015        4.54815368232560        0.14984909080788
C           -0.88737739943941        4.48759064329876        0.21674028387560
C           -1.21880961904670        3.11762933047655        0.16160531731187
C            2.32446346383479        2.81310748621736       -0.14352045675898
C            3.24910022364662        3.85707457703102        0.02308782532391
C            2.87614147528052        5.18546731884196        0.20015722665616
C            1.52003387690662        5.53757783996461        0.23079201031568
C           -1.92080777723929        5.39912342462048        0.30054051555691
C           -3.24590375091351        4.94227186481024        0.30836501194235
C           -3.51183087616265        3.57696889597406        0.30369520694183
C           -2.50484770057916        2.60028853505420        0.27971398286948
C           -4.36413479672038        5.97740559954416        0.33537872308414
C           -4.25374842676819        6.86332610802955       -0.91380066246283
C           -5.76107691124669        5.34920843773014        0.34623150660264
C           -4.22395482626334        6.83735698652950        1.59959684011478
C            2.83607985953715       -2.92755918188352       -0.14718286618368
C            4.19069350831469       -3.07939067966003       -0.28423618806538
C            4.72699435216545       -1.78638975888699       -0.62029056543948
C            3.62958252735604       -0.88358834603189       -0.62864861593917
C           -3.45740548682152       -1.23355023983302        0.45802319141981
C           -4.40940261688557       -2.27326560372590        0.63124788419310
C           -3.86358640716802       -3.43778083502759       -0.00772125037597
C           -2.64666465693373       -3.08297559459398       -0.53817032359627
C            5.98654983933590       -1.32913132334579       -0.91574298372424
C            6.14635734328807        0.01668129932555       -1.30030901743045
C            5.02942488480877        0.90567392533238       -1.31548388534491
C            3.74656702904911        0.48100992714736       -0.85554330387598
C            7.41123641540121        0.49964886703517       -1.70295998873238
C            7.56767541690485        1.77492691056558       -2.16500691528950
C            6.45073271562420        2.61573914045527       -2.27957311476836
C            5.21844304007106        2.18884034637111       -1.86748544236409
C           -3.64323914209436        0.07656419597730        0.87388767766109
C           -4.81619381780015        0.30118049731869        1.65444035118589
C           -5.78983223820389       -0.72992377649101        1.83145085711636
C           -5.58424092832784       -2.01520833248573        1.29332214775920
C           -5.02173240693068        1.52334730217880        2.32650046968351
C           -6.15155416992903        1.75540174402216        3.06080292700691
C           -7.14279028908469        0.76856688285277        3.16847850208996
C           -6.95593747052563       -0.44794205665221        2.57777603653229
C           -4.56412870379006       -4.72523470053346       -0.01871826031892
C           -1.90741951168772       -3.79371407406796       -1.57467636412311
C           -1.85967816651962       -5.18584139938253       -1.62351763762642
C           -1.26834425332943       -5.83262737036306       -2.69289104531082
C           -0.69651314672775       -5.10829235389342       -3.72401620824558
C           -0.73652207463212       -3.72382156771147       -3.68681601361058
C           -1.34525752698471       -3.07263859924798       -2.63341173236396
C           -4.11448666958479       -5.76790441400743        0.78791111754903
C           -4.81230556226714       -6.95980217112409        0.84300291837732
C           -5.96997033275790       -7.12226293738452        0.09988680568366
C           -6.42827547233639       -6.08647110489234       -0.69627724138075
C           -5.73308761451524       -4.89168718823569       -0.75213816621890
C            5.01907698130955       -4.25334464631298       -0.01216865222571
C            4.80304728298881       -5.49142848821233       -0.60818307529024
C            5.62484382499017       -6.56462682994007       -0.31538799956720
C            6.67870434105347       -6.41856083612199        0.56972191378316
C            6.90839189882693       -5.18804239840288        1.16268413459873
C            6.08753145038695       -4.11540604218241        0.87423123474584
C            1.89398010396106       -3.95933324065535        0.30750937995128
C            1.37330922858842       -3.89636851757377        1.59860325687254
C            0.52881011028476       -4.88832351734473        2.05916614934593
C            0.21099031884635       -5.96466409537952        1.24676821122222
C            0.72201634440087       -6.03205494002463       -0.03709558145554
C            1.54765618480968       -5.02934248811877       -0.51115599936483
B            2.50077969222029        1.29789885198157       -0.45450775708303
B           -2.54971897155854        1.05206254497402        0.38529308977514
C            3.90704220753861        6.29861476400998        0.34597326495855
C            5.34965792370613        5.78465464822349        0.34429900985450
C            3.75021483553528        7.27515908099703       -0.82870801704808
C            3.67128560579368        7.03604911986597        1.67219715134408
H            0.07826455890844       -2.77736161275934       -0.44048517936819
H            4.29390738371689        3.59805997097382        0.03041236713119
H            1.21879531194358        6.56813641452395        0.34071795098373
H           -1.70187198235044        6.45526090152674        0.34097236623028
H           -4.53283494876337        3.23424807417481        0.30120579515008
H           -5.05132241205006        7.60352329862614       -0.92132141959139
H           -3.30301878603614        7.38817023757175       -0.94785452301462
H           -4.33893872454674        6.25551756797925       -1.81244420298967
H           -6.51023533474612        6.13849487517857        0.36734338780774
H           -5.90666061956500        4.72456715799265        1.22441647672162
H           -5.93034240466444        4.75170265579720       -0.54664301697365
H           -4.27637651704640        6.20989796462882        2.48716669591381
H           -3.27840464474792        7.37220633460857        1.61665567220520
H           -5.02783215663468        7.56912378770142        1.64630629079628
H            6.84268181676916       -1.98768145316172       -0.89403918088505
H            8.25514489453343       -0.17466066625959       -1.65661081045265
H            8.53983286943975        2.13200444065512       -2.47209396779538
H            6.57033016125366        3.60038397621662       -2.70875998137754
H            4.35288149684578        2.81818098861289       -2.00011382974812
H           -6.33420574846115       -2.78223965999618        1.42357241932519
H           -4.24392142920925        2.26804508098856        2.27860277115414
H           -6.28294819021044        2.69776951774108        3.57336473809806
H           -8.03733182387731        0.96977730386714        3.73955757121337
H           -7.69519786635246       -1.22946633070963        2.68654769343656
H           -2.29152817356334       -5.76467125788892       -0.82435360239788
H           -1.25765638090305       -6.91270278443559       -2.72233372985039
H           -0.23217885307424       -5.61642209825968       -4.55623032458698
H           -0.30390059565201       -3.14805743129415       -4.49213992482200
H           -1.40152422404710       -1.99401308453697       -2.63907953733851
H           -3.22206054814433       -5.62801137802056        1.38305494554389
H           -4.45712192477776       -7.76279110932139        1.47299434678056
H           -6.51708910061663       -8.05221970808609        0.14734956899799
H           -7.33441597563310       -6.20825174662585       -1.27196643741889
H           -6.08949884280645       -4.08018409482290       -1.37008093847671
H            4.00113890557509       -5.61245538117738       -1.31820737795041
H            5.44450850330744       -7.52023195148907       -0.78639723509101
H            7.32035850249928       -7.25793216280558        0.79413254404518
H            7.73004463568678       -5.06569745392763        1.85373798648416
H            6.25797125844671       -3.15948494681679        1.34832779081858
H            1.63042615466598       -3.06108539504623        2.23378808291087
H            0.12393965206017       -4.82668260565527        3.05895333373057
H           -0.43528944474226       -6.74900661977758        1.61268024300062
H            0.47603706319458       -6.86707377469835       -0.67520931657839
H            1.90061719447555       -5.05833477814483       -1.53146327931301
H            6.03117446820213        6.62567958396336        0.45791462363943
H            5.52283257598642        5.09865587789854        1.17027688927032
H            5.58995395781157        5.28250416479900       -0.58963250635030
H            4.47463092365168        8.08280061507058       -0.74563339870555
H            2.75560706699254        7.71202992167136       -0.85343134883577
H            3.91722605407598        6.75729615733107       -1.77120693567444
H            3.74486151094210        6.34006381102694        2.50553904519341
H            4.41880505989532        7.81530534916492        1.80657309879594
H            2.68989919488303        7.50090294423371        1.70327350242267
