132
energy: -196.934330670251 gnorm: 0.004080323511 xtb: 6.7.1 (edcfbbe)
C           -1.24704358325129        0.33331221545216       -0.00954884113034
C           -1.17042874123483       -1.05933849389130       -0.21280874941219
C            0.05727343305708       -1.70303505645431       -0.33964266406576
C            1.24659433820668       -0.97885809023742       -0.32453722866996
C            1.23590816910542        0.43567184332141       -0.28550483180641
C           -0.02821370863842        1.02842947463842       -0.10647838876776
N           -0.07963289260978        2.38094077279240        0.00352742870477
N           -2.36863246308372       -1.75115155186688       -0.20121876249014
N            2.48635144026443       -1.59216234071665       -0.34090285410661
C            0.99873792872384        3.21939411384417       -0.00593019784600
C            0.55919489080351        4.55256926391489        0.13555535161664
C           -0.89038472466868        4.49153432501572        0.19468772572063
C           -1.22060830205901        3.12110888983095        0.14699083719891
C            2.32494196767728        2.81708598186928       -0.13226124624116
C            3.24712927152706        3.86192332266130        0.03858860434084
C            2.87129160591043        5.19168796699833        0.20176576358417
C            1.51525994714411        5.54383429515557        0.21480352169804
C           -1.92343108466959        5.40371319212344        0.27170535635964
C           -3.24807676770442        4.94640604969606        0.27871196536623
C           -3.51440215283353        3.58100662303166        0.28013245611136
C           -2.50726444135190        2.60419644341079        0.26379113063068
C           -4.36557989557742        5.98285440597832        0.30070257150665
C           -4.24655981415568        6.87081800627573       -0.94649673755161
C           -5.76257282984818        5.35547024350875        0.30263736357456
C           -4.22958117160009        6.83963062161836        1.56752069964840
C            2.83449688677758       -2.92911400316603       -0.14882083911673
C            4.19036836001562       -3.08144645621238       -0.27279131348615
C            4.73087911231209       -1.78648720117229       -0.59473032014895
C            3.63495340329517       -0.88167641106800       -0.60630039273166
C           -3.45468597412223       -1.23132416863583        0.46156508939045
C           -4.40054371034587       -2.27534958399435        0.64421187572359
C           -3.85573329224820       -3.43967272754557        0.00239475541502
C           -2.64495865143764       -3.08063613342725       -0.53901493570387
C            5.99285659679196       -1.33162005915994       -0.88129347204378
C            6.15829732807957        0.01547756402246       -1.25832576586827
C            5.04421838414098        0.90806523721898       -1.27484498774312
C            3.75586144153638        0.48397408732948       -0.82595452487380
C            7.42699688135607        0.49344882537306       -1.65454198198850
C            7.59167555694735        1.76944341780289       -2.11160168754756
C            6.47887696622236        2.61515088512862       -2.22632964899639
C            5.24247261050362        2.19233740504890       -1.82110282777387
C           -3.64439011167274        0.08017808798588        0.87149287264258
C           -4.81791408518943        0.30402042181287        1.65291790737503
C           -5.78171170915483       -0.73404362673086        1.84543266752594
C           -5.57047374229569       -2.02175047843864        1.31572896763954
C           -5.03682318451312        1.53297432172249        2.30838914530768
C           -6.16947407904720        1.76423181616529        3.03891925834708
C           -7.14849344464626        0.76740044339024        3.16594322119458
C           -6.94715425680457       -0.45597955775136        2.59442724717612
C           -4.55473216119623       -4.72816429167043        0.00417451009602
C           -1.91244402316197       -3.78318654187093       -1.58663210760025
C           -1.87775407155262       -5.17531652110357       -1.65498159319701
C           -1.29324887809212       -5.81299673079105       -2.73385285311685
C           -0.71618166625579       -5.08012581068877       -3.75562388679106
C           -0.74433781100589       -3.69577381960854       -3.69990143131125
C           -1.34572551064798       -3.05283281648400       -2.63702739494891
C           -4.08880418727694       -5.77009720566464        0.80308447076900
C           -4.78404943221672       -6.96303999396328        0.87423919985618
C           -5.95672658786893       -7.12717969182836        0.15451787693619
C           -6.43110556218501       -6.09296037196987       -0.63400843077395
C           -5.73822622899755       -4.89708975161007       -0.70560464430058
C            5.01550085850127       -4.25756654005891        0.00050211830220
C            4.79135657538373       -5.50019141177244       -0.58272197870817
C            5.61033953450090       -6.57435643599841       -0.28437457614852
C            6.66903337920707       -6.42595071715130        0.59416262623796
C            6.90684213013621       -5.19132413318284        1.17546347734025
C            6.08929910390916       -4.11764937827709        0.88060697553534
C            1.89028161677242       -3.97289333646419        0.27732395586448
C            1.36671950472190       -3.94677156046709        1.56865751120924
C            0.52799675499276       -4.95736623833242        2.00086651734256
C            0.21990073491613       -6.01372857213227        1.15894848516220
C            0.72953374692264       -6.04184372143139       -0.12761557637017
C            1.54993092242411       -5.02140568378751       -0.57271144463359
B            2.50528898092092        1.30103615117770       -0.43682915689235
B           -2.55265965134679        1.05646270784219        0.37682136668420
C            3.89981025911195        6.30568486990122        0.35978868999266
C            5.34209088251978        5.79178462783110        0.36728861368102
C            3.75268419388311        7.29024455524245       -0.80931286685839
C            3.64954061872105        7.03355469510905        1.68875523291800
H            0.07831214145735       -2.77381140393044       -0.43576553391914
H            4.29160115340608        3.60346602530945        0.06108032717461
H            1.21357020458861        6.57536782000925        0.31169091040113
H           -1.70592163426716        6.46018289151343        0.30723989836669
H           -4.53521759119727        3.23822897956371        0.27649129454663
H           -5.04271245321374        7.61242923499965       -0.95822854363661
H           -3.29477712173276        7.39428235923122       -0.97391537818963
H           -4.32669196326604        6.26423634075756       -1.84651341050437
H           -6.51256564185596        6.14421849116400        0.31073542665718
H           -5.91610510237860        4.73731483871996        1.18413323216015
H           -5.92267063269660        4.75094512046278       -0.58737192464336
H           -4.28334042137760        6.20952665809557        2.45316677548720
H           -3.28423070865992        7.37466222186190        1.58797292657478
H           -5.03379912599628        7.57085618973304        1.61484785344355
H            6.84826012327508       -1.99118053903469       -0.86068853860333
H            8.26722942678763       -0.18546941458126       -1.60852741235300
H            8.56673359014979        2.12211249802257       -2.41455928250426
H            6.60397138818186        3.60098796124443       -2.65161152504238
H            4.38258059925379        2.82840312124635       -1.95693432106219
H           -6.31528512085527       -2.79182308139769        1.45796127273996
H           -4.26870563310892        2.28695646576414        2.25060642026201
H           -6.31216598964895        2.71407066567796        3.53458403355849
H           -8.04440349086160        0.96655277630898        3.73574280367472
H           -7.67516986535877       -1.24600150588048        2.71927143329548
H           -2.31538098481829       -5.76050901926964       -0.86361767735956
H           -1.29297947488541       -6.89296163455599       -2.77696373235393
H           -0.25836872571116       -5.58129558766144       -4.59648358813266
H           -0.30881957062150       -3.11327958671451       -4.49898520037337
H           -1.39394016797391       -1.97383783362128       -2.63038449024658
H           -3.18527758699088       -5.62973596950186        1.38146222321576
H           -4.41404005528162       -7.76378803717328        1.49887735780426
H           -6.50293608249236       -8.05735729051337        0.21369013815806
H           -7.34873949224072       -6.21623677890047       -1.19159477198981
H           -6.11069110906054       -4.08751709434391       -1.31700218170399
H            3.98428410749304       -5.62623098350239       -1.28549678973139
H            5.42346864163250       -7.53320926871277       -0.74607446665083
H            7.30705625613735       -7.26717284888289        0.82353530566520
H            7.73119798471954       -5.06486123541450        1.86219405072669
H            6.26715335138946       -3.15917595784508        1.34698790986588
H            1.61778577067759       -3.12691907281251        2.22692607395666
H            0.12133613084378       -4.92552276279202        3.00294269588204
H           -0.42249173861220       -6.81170051959367        1.50243682456341
H            0.48741973784033       -6.85998833135793       -0.78969821880537
H            1.90784536605891       -5.02061603397424       -1.59386120340210
H            6.02388646808317        6.63084958702706        0.49259392089638
H            5.50752195923429        5.09981757557520        1.18996092182603
H            5.58919555082848        5.29558667908405       -0.56812443741427
H            4.47568655897516        8.09777508027600       -0.71376590772631
H            2.75832025997759        7.72741971585254       -0.83960228068355
H            3.92803350982686        6.77962732532570       -1.75411443173101
H            3.71129119104274        6.33112135492460        2.51770203024471
H            4.39590466958954        7.81114042958893        1.83864114307721
H            2.66785961235784        7.49876243013134        1.71054577415948
