132
energy: -196.940899606585 gnorm: 0.002328230093 xtb: 6.7.1 (edcfbbe)
C           -1.26271006075726        0.35294739825381        0.15435644425426
C           -1.19297276331448       -1.04523505544305       -0.03360858024477
C            0.03275668646490       -1.69193255534996       -0.15630587648515
C            1.21972983646198       -0.96541867961214       -0.18222336318377
C            1.21219286569564        0.44706554199607       -0.18511988547473
C           -0.04428039414199        1.04432356816885        0.02430728749714
N           -0.08355882298594        2.39823163055472        0.11421008581021
N           -2.39774162479571       -1.72599092870893       -0.04647030410956
N            2.45919386414475       -1.57474011202740       -0.24085263303832
C            1.00172255879573        3.22769956853420        0.05722741738863
C            0.58030004011380        4.56490465879936        0.21615243962489
C           -0.86693467913055        4.51578774898921        0.33375725107755
C           -1.21215861263569        3.14823152338748        0.29376868780292
C            2.31726795166281        2.81624107584517       -0.13416612700316
C            3.25594159643507        3.85350505040467       -0.01905421870173
C            2.90074000356305        5.18560154014251        0.16527400672010
C            1.54933851712887        5.54721997494168        0.25204477547183
C           -1.88866858229710        5.43575462440233        0.45444861331565
C           -3.21657089748510        4.98945364141765        0.50252595392053
C           -3.49528000935982        3.62680873598116        0.49326797236310
C           -2.49902561942160        2.63942030013555        0.44045934807478
C           -4.32293662908283        6.03423852421131        0.58767908478948
C           -4.23477428503332        6.96336611063870       -0.63145367363890
C           -5.72600199928803        5.42044841188956        0.61116820211492
C           -4.14113695401690        6.84754123015023        1.87747279570234
C            2.81328931285174       -2.91269600990502       -0.05643684303826
C            4.11305473496441       -3.10093373951503       -0.44407615166936
C            4.62144309661197       -1.82795744901538       -0.86869136894088
C            3.56112632657032       -0.89460088668508       -0.70223600241663
C           -3.52252323927637       -1.18094739708376        0.52808263066169
C           -4.52743081469452       -2.18643634997752        0.58525456125053
C           -3.96988455697926       -3.35319374577945       -0.04420422333046
C           -2.68752217625703       -3.03553146974823       -0.41952393444849
C            5.84175271935761       -1.39722567372753       -1.32564197715658
C            5.98550909309267       -0.04674662761474       -1.69826690152420
C            4.89830238702072        0.86997717097087       -1.55671914322343
C            3.67207394160624        0.46711801350970       -0.94550360994441
C            7.20494722309108        0.41561030700608       -2.24151150764690
C            7.34172320973217        1.69921824672343       -2.68567633324915
C            6.24427885533104        2.57138447398513       -2.63953853089871
C            5.05835153051510        2.16362100325105       -2.09359618800764
C           -3.69596929097457        0.12727157325279        0.95732697240016
C           -4.91294428430934        0.37240380055506        1.66155393197837
C           -5.94455056780480       -0.61450518475909        1.70598727979210
C           -5.75311965235918       -1.88324321775386        1.12445966662586
C           -5.11229849963016        1.56505894889704        2.38609330800787
C           -6.28557360149283        1.81601901916644        3.04274143636551
C           -7.33045168745233        0.88074626458260        3.01222960435020
C           -7.15474040641423       -0.31049275293746        2.36871879536158
C           -4.67830740886194       -4.60759411916665       -0.27733443418766
C           -1.79294294487906       -3.87603184305223       -1.21093823093424
C           -1.59078436251892       -5.21219359351711       -0.87476888207333
C           -0.80914945344033       -6.02066932963753       -1.67811125713776
C           -0.21023379921720       -5.50642860447038       -2.81563488182438
C           -0.40491618417511       -4.17768765869424       -3.15623685208828
C           -1.19776728976738       -3.36860217614315       -2.36672557560509
C           -5.40436428995389       -5.20147809693193        0.75353431798654
C           -6.08310251141131       -6.38657253486435        0.54094890416410
C           -6.04761512887642       -6.99745672288820       -0.70105481085578
C           -5.33261235322653       -6.41216411292472       -1.73276665109449
C           -4.65519374505052       -5.22573487904357       -1.52555666963078
C            4.91403799481378       -4.33131769705440       -0.38104685411990
C            4.91272619062453       -5.23446004332952       -1.43869232044601
C            5.68426026114152       -6.38094785562404       -1.38011503654595
C            6.47196502192661       -6.63196043237704       -0.26931730236788
C            6.49078228792492       -5.72854693355728        0.78068426816626
C            5.71724187399146       -4.58353545361222        0.72588761780443
C            1.98739174885386       -3.88911343477598        0.64886076369580
C            1.35700221805027       -3.54220276887608        1.84488395422764
C            0.63906562620966       -4.48394257387819        2.55473171750163
C            0.55520534527997       -5.78891553996581        2.09611022306015
C            1.19046467394719       -6.14471256513847        0.91970180871793
C            1.89673056680165       -5.20282328246745        0.19621658117382
B            2.47315746508288        1.29875683608556       -0.43552218386858
B           -2.56288266372765        1.08898339365512        0.53310938542512
C            3.94816950493368        6.28842237342892        0.26470456706917
C            5.38360920029200        5.76169646246105        0.17401753601513
C            3.73683325868827        7.28327265597455       -0.88548586390633
C            3.79402472811133        7.00835343991905        1.61204982068934
H            0.06547912797610       -2.76428814471893       -0.22628085898281
H            4.29772691613341        3.58508551049797       -0.05872712265623
H            1.26117249206526        6.58085926443956        0.36847666862362
H           -1.65948941275802        6.48971074097859        0.49350012287761
H           -4.51959721730920        3.29586611239506        0.51206022114469
H           -5.02551668894996        7.70982692440774       -0.59240864101591
H           -3.28106430141859        7.48222684731714       -0.67064479444735
H           -4.34766639920707        6.38905410950934       -1.54881199222557
H           -6.46609223108306        6.21653354775678        0.66895261973635
H           -5.86089536370898        4.77418949237075        1.47527172157302
H           -5.91968979798811        4.84836122025401       -0.29330443271754
H           -4.18827692048507        6.19114834561513        2.74413292050443
H           -3.18443795580205        7.36244105555535        1.89298066647240
H           -4.92918885965334        7.59262621057371        1.96566779112992
H            6.67502929362481       -2.07808733242232       -1.42522633753457
H            8.02863635063449       -0.28086660571034       -2.31456168938143
H            8.27986826667429        2.04001713245078       -3.09852633308569
H            6.34044144817316        3.56637928166611       -3.05019172741937
H            4.20449885992777        2.82178774140694       -2.10004731022747
H           -6.55880499872357       -2.60266072921168        1.13230939643712
H           -4.29592419870331        2.26682027502013        2.44728888058677
H           -6.41094045830849        2.73307925727813        3.60083060541674
H           -8.25816860064493        1.09756042181037        3.52160376631151
H           -7.93645742450389       -1.05758719351696        2.37434647076946
H           -2.04677415896887       -5.60986471884074        0.01936512831568
H           -0.66843715463204       -7.05843705534616       -1.41599266816550
H            0.40279951954059       -6.14042914499967       -3.43903776116234
H            0.05456118224736       -3.77263251464777       -4.04599090610673
H           -1.36485976734931       -2.33709106005136       -2.64225367810533
H           -5.41948159822941       -4.73571131088355        1.72832623184643
H           -6.64265123686321       -6.83834746105248        1.34819548097888
H           -6.57807026394742       -7.92402558188941       -0.86468088757115
H           -5.30463937858099       -6.88092339477299       -2.70543197487682
H           -4.11211102723057       -4.76449344883598       -2.33782038691538
H            4.30713587403399       -5.03083298497275       -2.31139777293520
H            5.67178965721089       -7.08009009347865       -2.20448356454366
H            7.07394058275508       -7.52773269408544       -0.22379343595941
H            7.11132642840221       -5.91684711053829        1.64538490505228
H            5.73023951963396       -3.87617004954057        1.54353558670959
H            1.43487515980256       -2.53087189150415        2.21831910977913
H            0.15069768691964       -4.20084413372611        3.47566944700609
H            0.00068927800556       -6.52598102463616        2.65683329148943
H            1.13600147060726       -7.16257118457084        0.56334214219182
H            2.37479508441620       -5.47897943612740       -0.72947091041622
H            6.07830378829138        6.59536177972459        0.25667983201753
H            5.59886754695816        5.06551896971955        0.98115047863174
H            5.56403383052403        5.26784709835628       -0.77778662450403
H            4.47965753885358        8.07678763316256       -0.83640954721876
H            2.75133133605297        7.73847226408801       -0.84346258103520
H            3.83680316682850        6.77601741274337       -1.84287288434664
H            3.92157265852935        6.30247130749628        2.43042652156087
H            4.54639992183676        7.78848909300123        1.70919097032316
H            2.81458995704781        7.46834249582252        1.70965101112900
