132
energy: -196.938143770755 gnorm: 0.012045303003 xtb: 6.7.1 (edcfbbe)
C           -1.24024844135613        0.34291273278166        0.13560770652442
C           -1.16958525363686       -1.05175816679417       -0.07359540055361
C            0.05611658824917       -1.69451069024818       -0.21409979891553
C            1.24181186324352       -0.96678327723871       -0.22029843728595
C            1.23395721203686        0.44550042930599       -0.20246981229057
C           -0.02298651100501        1.03834787908162        0.01345029617937
N           -0.06414596569713        2.39042223387363        0.12418334602136
N           -2.36967285179394       -1.74053290738604       -0.07926143859832
N            2.48147099675939       -1.57461225142015       -0.27112611043448
C            1.01989801606832        3.22256171376784        0.07166297645357
C            0.59424081432379        4.55724670130607        0.24167142286284
C           -0.85275122776834        4.50387924036283        0.36055974142455
C           -1.19434423716097        3.13599778049874        0.30970208406125
C            2.33584809716994        2.81736371921459       -0.13202602950289
C            3.27107064491680        3.85925038775708       -0.01890922665275
C            2.91098326238193        5.18824360436140        0.17787056185564
C            1.55859004809297        5.54339735039456        0.27760334713314
C           -1.87652400597190        5.42059943303936        0.48599102291408
C           -3.20346002391330        4.97036122814831        0.52659213408105
C           -3.47931281064306        3.60742055329517        0.50436469275614
C           -2.48055414349182        2.62314240636495        0.44790725348305
C           -4.31217595074163        6.01191324257414        0.61169279543274
C           -4.23439513258128        6.92708031528885       -0.61864777318305
C           -5.71317998065053        5.39414743813636        0.65302074664034
C           -4.12329900880227        6.83889477523885        1.89124544315168
C            2.83409222248210       -2.91113603192937       -0.07474003427644
C            4.14166338732004       -3.09485329160019       -0.43862604018769
C            4.65310016469213       -1.82047014967906       -0.86177672428476
C            3.58672074384964       -0.89152251478603       -0.71639658698842
C           -3.48626371385687       -1.20397876027959        0.51832290792477
C           -4.47963889290056       -2.21772103929643        0.60207181861322
C           -3.92349871344706       -3.38008649598719       -0.02749333103246
C           -2.65745409918127       -3.05652121542534       -0.44163627860889
C            5.87533867589007       -1.38381985740705       -1.31128825372972
C            6.01340343228093       -0.03565090148040       -1.69366356278247
C            4.92078582673180        0.87685800740977       -1.56341144707319
C            3.69382143276102        0.47141913836967       -0.95715979496650
C            7.23176323742174        0.43340576220305       -2.23696451680457
C            7.35753905127334        1.71269004776654       -2.69591666382681
C            6.25292487683022        2.57765402080376       -2.66270692617109
C            5.07094349686003        2.16756360800590       -2.11089596606103
C           -3.66493748304594        0.10212578289514        0.95215665921197
C           -4.88167809019434        0.33967475205443        1.65882413360336
C           -5.90710226525674       -0.65413289792024        1.71452119327087
C           -5.70168371773846       -1.93007691428671        1.15817458807422
C           -5.08815248839154        1.53996865418527        2.36988832102760
C           -6.27137519050397        1.80148570076724        3.00211019539486
C           -7.31599312918699        0.86501462233018        2.96720983357434
C           -7.12677339351935       -0.34037378182320        2.35658531390426
C           -4.65087445104403       -4.63377857461941       -0.25589808335389
C           -1.80831274540279       -3.91110151753762       -1.26493490955019
C           -1.70901547465862       -5.27047809288267       -0.97685831636614
C           -0.97938083966246       -6.10939689484586       -1.79840712712070
C           -0.33004988135028       -5.60493137522810       -2.91148719058689
C           -0.42640677319314       -4.25402997126020       -3.20867412680884
C           -1.16638012394576       -3.41347885599994       -2.40079956660178
C           -4.94368416741792       -5.48405152762276        0.80722700634301
C           -5.63356650913403       -6.66219699947445        0.58436090465160
C           -6.05238369483501       -6.99151939462876       -0.69873949957576
C           -5.77603484021791       -6.14335843499724       -1.75808899651642
C           -5.06755269498787       -4.97582156134913       -1.54151992665343
C            4.95254526660774       -4.31416041798776       -0.33230435788790
C            4.83981398402305       -5.34147799693619       -1.26287787227155
C            5.62569143015786       -6.47489855953404       -1.15023968628191
C            6.53728835896449       -6.58718790005183       -0.11357622335529
C            6.67209710032110       -5.55612849794533        0.80386708176635
C            5.88646299644608       -4.42442335171717        0.69466093258459
C            1.97237316299074       -3.85981676626046        0.62954907400708
C            1.35035502403758       -3.46683505673402        1.81622002170350
C            0.53593305723285       -4.34557552631299        2.50505268386336
C            0.34861643597413       -5.63667631483193        2.03908571210853
C            0.98898549087036       -6.04499037823833        0.88135722337699
C            1.79165322748844       -5.16447020289373        0.17895140889562
B            2.49381037764190        1.30139805316218       -0.44523659926212
B           -2.53983100794597        1.07205462259371        0.52669445108969
C            3.94949358618735        6.30045767935330        0.26894658019651
C            5.38951607279794        5.78584069532594        0.18969362946168
C            3.72909680100796        7.27839460405445       -0.89475470759728
C            3.78715985730899        7.03674386400048        1.60690350385963
H            0.08496061870751       -2.76481563879562       -0.30933107168701
H            4.31429307187041        3.59790205238401       -0.07227231574515
H            1.26661170236729        6.57489270356631        0.40151081570294
H           -1.64990257952401        6.47484234705417        0.53221852444698
H           -4.50331077134685        3.27481467336905        0.51463920966766
H           -5.02599439582531        7.67256814241525       -0.58383747321170
H           -3.28112348859017        7.44643558371196       -0.66943435048206
H           -4.35105337488528        6.34136830742295       -1.52820959421240
H           -6.45494637352672        6.18844909926117        0.71283274303291
H           -5.83638447401174        4.75342085185821        1.52296016820309
H           -5.91498525321154        4.81534622086391       -0.24513959177133
H           -4.14683187277508        6.18945689619019        2.76400653846914
H           -3.17482714386754        7.36869548374546        1.88748830133215
H           -4.92099165127335        7.57279197538588        1.98564749710434
H            6.71435483445256       -2.05953359224792       -1.40026491872490
H            8.06296063132619       -0.25573331485024       -2.29916366368233
H            8.29414091864559        2.05701119527817       -3.11071749859952
H            6.34119672472924        3.56742541738587       -3.08746498381849
H            4.21021863628921        2.81720393067718       -2.12148436292725
H           -6.48830872119759       -2.66998804724065        1.19130792072811
H           -4.26876129453224        2.23784399541719        2.43325647868058
H           -6.40626706738458        2.72696284603143        3.54348031907738
H           -8.25488045620485        1.09332590049968        3.45016849197994
H           -7.90747429760065       -1.08851378880487        2.36658430008535
H           -2.20085021092831       -5.66338314937537       -0.10058710209657
H           -0.92061478305250       -7.16152628176124       -1.56610262612694
H            0.24315075975424       -6.26165422512664       -3.54771025982332
H            0.07134934489245       -3.85598856542048       -4.08100690114084
H           -1.25289679893609       -2.36609895117806       -2.65022626902973
H           -4.62656544128359       -5.21865545286998        1.81692530469044
H           -5.84721925328936       -7.32398013877949        1.41833728182034
H           -6.60101160228808       -7.90641445737994       -0.86600759023909
H           -6.11702928161020       -6.38841790730266       -2.75197865184519
H           -4.85039727821062       -4.31030025595336       -2.36127181004773
H            4.14379134258039       -5.24092555396318       -2.08548054771624
H            5.52773817716447       -7.27198891715769       -1.87467074932986
H            7.14938701720583       -7.47270352535289       -0.02569459754441
H            7.39168280315988       -5.63567460187282        1.60727839660199
H            5.98610880876204       -3.61648858813739        1.40741258867024
H            1.50320253314242       -2.46607972968529        2.19669754486440
H            0.04888691388997       -4.01882551831299        3.41115309251880
H           -0.29266812816204       -6.32216482929064        2.57529216150300
H            0.85969409376631       -7.05451975162956        0.52055021238831
H            2.26594279359196       -5.48707287729161       -0.73313504348756
H            6.07673440647115        6.62756916516253        0.25839960211348
H            5.60798233268291        5.10669478256136        1.01044685494230
H            5.57827389380869        5.27673077910911       -0.75232287487171
H            4.46260857981820        8.08028526186065       -0.85585809606505
H            2.73744615014974        7.72174724956318       -0.85902709376414
H            3.83386093951305        6.75848670587040       -1.84509992421940
H            3.90506909103764        6.33976928875302        2.43387825962957
H            4.54198405609494        7.81467174620604        1.70081400319434
H            2.80944842222482        7.50292759295105        1.69185994469620
