132
energy: -196.936026421753 gnorm: 0.001800324308 xtb: 6.7.1 (edcfbbe)
C           -1.23816339901274        0.31501827028099        0.14716775322800
C           -1.16529684895038       -1.07799234745443       -0.06886774280960
C            0.05972454031467       -1.72328298131811       -0.19898869692069
C            1.24479741697748       -0.99507589362957       -0.21964526418733
C            1.23408748298702        0.41815751408714       -0.21305299983343
C           -0.02199814273724        1.01006594998800        0.01516865750968
N           -0.06527810240072        2.36225635114107        0.12188440209526
N           -2.36600175257936       -1.76152836963528       -0.09426723805330
N            2.48419656414256       -1.60206473664295       -0.27368321417971
C            1.01394003328764        3.19764951985523        0.04379674398131
C            0.58638507874732        4.53222601805224        0.20958850286696
C           -0.85760732038212        4.47389452859073        0.35864712360854
C           -1.19584024977936        3.10454633421342        0.32192140248785
C            2.32795235123117        2.79392555718640       -0.17583700454948
C            3.25985363970526        3.84085148961245       -0.09387297009048
C            2.89810368524471        5.17216452311406        0.08437995638674
C            1.54714405624065        5.52304974213959        0.21034117768535
C           -1.88160723088929        5.38853331029343        0.50005862022168
C           -3.20613308875228        4.93532985667566        0.56849341583352
C           -3.47823148430458        3.57130599748057        0.55630804883596
C           -2.47868144323090        2.58878824559834        0.48314728746959
C           -4.31663807304916        5.97363536147250        0.67550766138725
C           -4.24845108392693        6.91239941929466       -0.53749283142619
C           -5.71609424586902        5.35224770081537        0.71154533466714
C           -4.12257975608832        6.77786067497483        1.96904730521039
C            2.83677181660951       -2.93362604521332       -0.05398542658917
C            4.16384934688363       -3.11264284672634       -0.34341866262383
C            4.67850564034200       -1.83740681239863       -0.77071166468049
C            3.59948303669115       -0.91571480484169       -0.68652636669333
C           -3.48301102700067       -1.23799356451018        0.50904697787297
C           -4.47377644287403       -2.25610364026675        0.56353741205135
C           -3.91196795500830       -3.40745710161729       -0.08484335111943
C           -2.64700649248919       -3.07102485075432       -0.49143161604916
C            5.90684849638526       -1.40258286808435       -1.20081553583161
C            6.04243449477870       -0.06449935896498       -1.62090361613789
C            4.94219487455475        0.84329612074137       -1.53752853309271
C            3.70313895988297        0.44329338679133       -0.95115982073088
C            7.26669756817044        0.39120501966158       -2.15891402689195
C            7.39625302475462        1.65743164974616       -2.65266124529469
C            6.28904548285767        2.51840608642413       -2.65880107660599
C            5.09818915565324        2.11851728367313       -2.11776448186906
C           -3.66306783600664        0.05917817270387        0.96864032946192
C           -4.87798720908636        0.27578889524225        1.68675146003014
C           -5.89398697974778       -0.72869226673835        1.73424247834749
C           -5.68998475563456       -1.98961807551739        1.14118109382269
C           -5.09032829390218        1.45850149673713        2.42409780242324
C           -6.26269441707271        1.68679801724900        3.09060604680150
C           -7.29373980687513        0.73603625715541        3.06061063551370
C           -7.10322323866632       -0.44850136820214        2.40957333739309
C           -4.64746650832843       -4.66200945008941       -0.28857828783389
C           -1.80824798469216       -3.81962023688536       -1.42171006906630
C           -1.66172510486807       -5.20032762408353       -1.31832519993669
C           -0.92962995066652       -5.89914192476755       -2.26068235576151
C           -0.32575925292097       -5.23409340183256       -3.31331061561827
C           -0.47266137658109       -3.86102720649441       -3.43010303537333
C           -1.21424215169766       -3.16017660932888       -2.50095274363129
C           -4.44823748755308       -5.74499725052549        0.56146797811989
C           -5.17256773517520       -6.91059641815790        0.39110744707864
C           -6.10769533070258       -7.00421229896921       -0.62473555537123
C           -6.32024177490911       -5.92579890463196       -1.46672131242093
C           -5.59659998445113       -4.75925434252341       -1.29856866066123
C            4.99271687513704       -4.30400441703849       -0.15851093959692
C            4.72354080067612       -5.50657861745950       -0.80273286783346
C            5.53667473407463       -6.60719114715809       -0.60351220900144
C            6.63596333589422       -6.52071596544873        0.23312541158214
C            6.92414913260668       -5.32199224512344        0.86434396232345
C            6.11152845454598       -4.22186772208676        0.66884001515220
C            1.93649542336222       -3.86468702485722        0.63469504597940
C            1.49310951909533       -3.52881871526969        1.91462118636827
C            0.65874077394959       -4.37903843446931        2.61235179893314
C            0.26624522806529       -5.58314849815935        2.05082794675458
C            0.70783039594473       -5.92703542896592        0.78580329034415
C            1.53176776619628       -5.07122234483183        0.07666811612015
B            2.49123024221022        1.27408197334714       -0.46925847993527
B           -2.53810414253211        1.03673605913321        0.55378920355888
C            3.93621929314938        6.28745104416518        0.12832837211377
C            5.37272123448238        5.77544752090970       -0.01353301533872
C            3.66680168357638        7.26268587714911       -1.02712109737825
C            3.82764172416237        7.02618258963828        1.46979800161121
H            0.08627771417155       -2.79462718862669       -0.28336656133907
H            4.30276367758272        3.58226236897429       -0.15796400557323
H            1.25345809146155        6.55515226499223        0.32605378675302
H           -1.65701523548788        6.44353996715629        0.53846031975100
H           -4.50071663460520        3.23564916942868        0.58718980197275
H           -5.05050323546052        7.64607364330758       -0.48991211747507
H           -3.30332227563103        7.44676022561244       -0.57687052207218
H           -4.35609316250710        6.34277447265700       -1.45829867283436
H           -6.45976168516044        6.14399832395901        0.77951709880034
H           -5.83844488959085        4.70276221310477        1.57504654472631
H           -5.91604905563196        4.78188471377896       -0.19249045674949
H           -4.15200075690180        6.11429430535478        2.83099161927822
H           -3.16962291319371        7.29978776080519        1.97453099886209
H           -4.91490068119833        7.51608512753853        2.07471176734642
H            6.75361170987790       -2.07190247504314       -1.25255116749383
H            8.09914314057325       -0.29817265374450       -2.19111529715920
H            8.33676455518232        1.99194661265497       -3.06548361293729
H            6.38164393257808        3.49726996380039       -3.10747260122987
H            4.23611360477962        2.76432783505514       -2.16622926134625
H           -6.47262189385167       -2.73409558117778        1.16810529816527
H           -4.28411885049355        2.17182539407327        2.48544891714194
H           -6.39837584450845        2.59772180736469        3.65616330709362
H           -8.22204411903194        0.93611128978716        3.57587482775625
H           -7.87279908190531       -1.20807311972615        2.41534136696711
H           -2.11876855876704       -5.72419658445807       -0.49475005384305
H           -0.82997172814638       -6.97048648466322       -2.17201565812253
H            0.24977578159891       -5.78144010866418       -4.04453125914112
H           -0.01359749843507       -3.33529477080674       -4.25455130698983
H           -1.34244562782072       -2.09360644025173       -2.61198687973748
H           -3.72980058960702       -5.66279570544735        1.36621110360892
H           -5.00993558495647       -7.74767628191432        1.05529670288595
H           -6.67440515369058       -7.91419707709784       -0.75544488230357
H           -7.05415859502366       -5.99325898622678       -2.25668835353679
H           -5.76127523700032       -3.91483013522276       -1.95280249645155
H            3.88876662531056       -5.57244826787081       -1.48300150666724
H            5.31439006517609       -7.53607328861229       -1.10873649709701
H            7.26975948757502       -7.38149680265498        0.38782771442934
H            7.78541324320646       -5.24566157660254        1.51245502172315
H            6.33085092105172       -3.28906767546012        1.16853254789266
H            1.80533786756783       -2.59270295549318        2.35511463967556
H            0.31568005644101       -4.10356018849782        3.59856026585420
H           -0.38336843842935       -6.24965890843802        2.59877155774641
H            0.40496443816653       -6.86373597849428        0.34341980924787
H            1.83110352245751       -5.32568803229927       -0.92731958830761
H            6.06066486458446        6.61814821562698        0.02534374044668
H            5.63016713655170        5.09601990565738        0.79564096512211
H            5.51870031725551        5.26691306746239       -0.96354047970689
H            4.41113969167180        8.05604327762789       -1.03006669221262
H            2.68489361715246        7.71994175921738       -0.94283708354403
H            3.71715302067637        6.73872388284675       -1.97937528753069
H            3.99661725063257        6.33479635400038        2.29275732743289
H            4.57339871269224        7.81660571689217        1.52454017934598
H            2.84724637890565        7.47604797505977        1.59966615856252
