132
energy: -196.929454043186 gnorm: 0.006110153658 xtb: 6.7.1 (edcfbbe)
C           -1.27695635166499        0.36097071812065       -0.12391722901098
C           -1.19614405205976       -1.03626477340645       -0.27623330831445
C            0.03362204416966       -1.69119819459456       -0.32300842876771
C            1.22687398403452       -0.97251764950058       -0.31575368290095
C            1.21335460848584        0.44469528814363       -0.31267714380618
C           -0.05255416979937        1.04913013587870       -0.19334102847943
N           -0.10421576592061        2.40426777413908       -0.10486266336175
N           -2.39852791262754       -1.72266425790539       -0.28325364377994
N            2.47021100756224       -1.58658789766074       -0.28517257823212
C            0.97529924194881        3.23958564535960       -0.07387359065556
C            0.53960098990822        4.57617301827365        0.04050899731638
C           -0.91229574850451        4.52106720986005        0.03168816249458
C           -1.24592479064140        3.15102311888559       -0.01690583055776
C            2.30129571052972        2.82624987376228       -0.12888879216711
C            3.22334993387671        3.85769857147037        0.10047853291713
C            2.85143978090889        5.18840528175057        0.25897637754635
C            1.50122896070601        5.55632032777804        0.18579331105167
C           -1.94580678653577        5.43612988846788        0.05708984595237
C           -3.27044957555015        4.98216585250361        0.01494325082380
C           -3.54151857505978        3.61763871025207        0.02128219126285
C           -2.53798332940388        2.63906864873847        0.05795723616472
C           -4.38754812257906        6.01879014535123        0.00495898488300
C           -4.20074357338310        6.95943224748484       -1.19366985699542
C           -5.78065736582977        5.39249074887734       -0.10165127218352
C           -4.32222754697136        6.81893477709481        1.31373291676828
C            2.82925069274953       -2.91439199308863       -0.05696691406511
C            4.19431714947123       -3.03514749811866       -0.03127126982103
C            4.74125577284590       -1.74076815923036       -0.32227404332142
C            3.63297161549046       -0.86210416400540       -0.45295770377777
C           -3.47814526852983       -1.19161682789739        0.38233951290096
C           -4.39712215552545       -2.24273714408320        0.63662017239689
C           -3.85820507757201       -3.42169508024911        0.01463579651657
C           -2.67762632077576       -3.05950019510015       -0.60375501990638
C            6.01806356024340       -1.27698214498839       -0.51815430972533
C            6.19731775430309        0.05725362128471       -0.92805048412164
C            5.07511425635367        0.92819473046657       -1.05985940381704
C            3.76240479016105        0.49832014962802       -0.69698454774207
C            7.48533719181499        0.54344734369078       -1.24809793551121
C            7.66183657399174        1.80358169937967       -1.74190649992111
C            6.54737568814844        2.62442308894872       -1.97079133393623
C            5.29153531830072        2.19570527580426       -1.63970345887543
C           -3.67843201222584        0.13272071033235        0.74585437962917
C           -4.84240945262008        0.37117928475460        1.53814148233865
C           -5.77023436618350       -0.67954445832055        1.81788810862638
C           -5.54188024269985       -1.98734873526003        1.35019214817581
C           -5.08720769932451        1.63145586680236        2.12261389345184
C           -6.20603875672510        1.87073324503469        2.87177335335149
C           -7.14529335593223        0.85281673258511        3.09371095128678
C           -6.92064020157896       -0.39490245109008        2.58902631147552
C           -4.49642751171430       -4.72463130542257        0.17343999214569
C           -2.04716493077456       -3.71787005281226       -1.74221543828117
C           -2.26139197056765       -5.07146986948070       -2.02181352725705
C           -1.78805826908157       -5.64098678241474       -3.18838315534010
C           -1.06960237260338       -4.88611951665527       -4.10157246021564
C           -0.86259902577330       -3.54050138702474       -3.84872104828972
C           -1.35652230257611       -2.96018052205791       -2.69699503059795
C           -3.78872054758524       -5.76954409407006        0.77225076059369
C           -4.40668539570022       -6.98038640117994        1.01780449004099
C           -5.73984424910810       -7.16029310572636        0.68205625108303
C           -6.45233624596777       -6.12576160433289        0.09888142601471
C           -5.83671033759889       -4.91263633176802       -0.15309440596814
C            4.98611143486271       -4.22589323476836        0.26032799786755
C            4.73380127833488       -5.45048146587369       -0.35079928591435
C            5.52018161360474       -6.54979817804643       -0.05928111902785
C            6.56315637095296       -6.44337910286139        0.84456214934832
C            6.81998570285040       -5.22960883611796        1.46018154209357
C            6.03841289790903       -4.12813886814053        1.17000357465661
C            1.95111799177850       -4.07363100761656        0.16613903523276
C            1.94051407092821       -4.67784700650099        1.42194311365482
C            1.24649737895587       -5.85697198241210        1.62438347044075
C            0.57276450260116       -6.45242598854174        0.57089367822391
C            0.59491210585723       -5.86898430754098       -0.68599336526966
C            1.27818853482262       -4.68473545825227       -0.89060317609612
B            2.48624056785363        1.30988190250297       -0.41188047708842
B           -2.59126409011053        1.09522151170408        0.21182238672536
C            3.88277313499889        6.27665884138897        0.53373274060279
C            5.31510046038534        5.73862899311856        0.59740803728016
C            3.82346305983338        7.33204527346082       -0.57866628003264
C            3.55796670992299        6.92390895912043        1.88788278507618
H            0.04440012745334       -2.76566179826643       -0.34443892598415
H            4.26137609744283        3.58577555080467        0.17908406035526
H            1.20610296623549        6.59069860405460        0.27393122042551
H           -1.72619203978749        6.49209449702780        0.09466047213747
H           -4.56262619869423        3.27808779995805       -0.01933461348382
H           -4.99702284781588        7.70074970862283       -1.21686232882067
H           -3.25140227138418        7.48537929341186       -1.14631518311381
H           -4.22995995770035        6.39282089057097       -2.12235981982735
H           -6.53068554521389        6.18060749677074       -0.12600059162252
H           -5.99370713790953        4.75457309928184        0.75290894526310
H           -5.87751194303878        4.80886228109981       -1.01417554765401
H           -4.45094298289671        6.15341468515134        2.16508432962979
H           -3.36690003772860        7.32560919610152        1.42088273278109
H           -5.11061872532606        7.56841162364732        1.33837178955142
H            6.87312672861238       -1.92754205061408       -0.40737460362859
H            8.32922699287931       -0.11904867462863       -1.11401404804644
H            8.65032488261441        2.16369772372018       -1.98785488081818
H            6.68930808617385        3.59488463394944       -2.42512269296982
H            4.43140706444892        2.80755702575782       -1.86003050596763
H           -6.25363047833084       -2.77009908045263        1.56879625403326
H           -4.34874171311319        2.40534132162606        1.99192724919477
H           -6.36862768894038        2.84517477913907        3.31019590128666
H           -8.02859148026158        1.05789060215055        3.68121106857358
H           -7.61682586748872       -1.19938865353479        2.78105984635798
H           -2.81620031813781       -5.68453667607236       -1.33096474248289
H           -1.98477098096257       -6.68634186606175       -3.38516600650178
H           -0.69085172044725       -5.33724204231534       -5.00697093054701
H           -0.32503915104643       -2.93193851127626       -4.56231008230731
H           -1.22347594775652       -1.89910246843568       -2.55465700890123
H           -2.75551096343019       -5.61198064200526        1.05381555893809
H           -3.85075462924417       -7.78449849163814        1.47933191512206
H           -6.22298017675334       -8.10607167437956        0.87975537538993
H           -7.49338300408659       -6.26376895262772       -0.15708895676194
H           -6.38510304418244       -4.10557632885811       -0.61757576474078
H            3.92785180534260       -5.53139086176103       -1.06463719142937
H            5.32116652882463       -7.49474269830353       -0.54348571445855
H            7.17652783514988       -7.30408988685189        1.06808356581864
H            7.63122444082390       -5.14234480754240        2.16885860506054
H            6.22385274769453       -3.18347707378299        1.66021119350994
H            2.48812800065874       -4.21952439788571        2.23354759928843
H            1.24655227224223       -6.32117555787588        2.60116030836750
H            0.04054711165314       -7.38024138171734        0.72270227853149
H            0.08946206913365       -6.34364729258078       -1.51300416160316
H            1.30461763678847       -4.23597640760408       -1.87502121095106
H            6.00020505212395        6.55838111927853        0.80431637317405
H            5.42393207532395        5.00403809564795        1.39135733095659
H            5.60809530391376        5.28564653349073       -0.34684343406702
H            4.55629014428130        8.11437715550066       -0.39201862547488
H            2.84233780467621        7.79515492777231       -0.63914407877482
H            4.04429812717954        6.87497942192635       -1.54114023591168
H            3.57909774285242        6.17232005734458        2.67452077897198
H            4.28986904622178        7.69319991821921        2.12528432474454
H            2.57269954385549        7.38181305694811        1.88263420410547
