132
energy: -196.940795615942 gnorm: 0.002163154991 xtb: 6.7.1 (edcfbbe)
C           -1.26303838140572        0.35517067608135        0.14509740096924
C           -1.19150892870347       -1.04262541352571       -0.04204874559715
C            0.03339163203933       -1.69076054344608       -0.16197000562481
C            1.22061004896144       -0.96535534438303       -0.18972746963707
C            1.21259969741792        0.44734092416807       -0.19212002925580
C           -0.04401720019355        1.04537773097475        0.01640587731421
N           -0.08429962380622        2.39910694903760        0.10785809108043
N           -2.39475098680251       -1.72484550838739       -0.05420748858793
N            2.45858955763771       -1.57723002680443       -0.24930210662306
C            1.00105076763722        3.22861724559314        0.05311330239862
C            0.57904324118240        4.56546748602232        0.21323772678467
C           -0.86800216724811        4.51587864273953        0.32993970351423
C           -1.21367333732065        3.14843932003927        0.28720113233129
C            2.31675704145727        2.81712162711832       -0.13746936407560
C            3.25449040146158        3.85524046241159       -0.02013771650714
C            2.89828119297145        5.18705826493696        0.16460224329564
C            1.54690894249278        5.54858624426859        0.24937040229265
C           -1.88817226808008        5.43697115030151        0.45403012336338
C           -3.21677119192574        4.99244196252826        0.49944281525670
C           -3.49681857761680        3.62976249388892        0.48645292553318
C           -2.50154233477912        2.64087889570433        0.43267790500087
C           -4.32044999433464        6.04041051213483        0.58392279748759
C           -4.22745887764159        6.96945762592756       -0.63520138248581
C           -5.72541191294811        5.43109493301894        0.60580143011305
C           -4.13796477689910        6.85465504917319        1.87317786169687
C            2.81165160237458       -2.91586237533286       -0.06595456555660
C            4.11493335765503       -3.10193380282804       -0.44173726546488
C            4.62612330720524       -1.82788363248633       -0.86008096951812
C            3.56360526960583       -0.89596186417246       -0.70102232825639
C           -3.51818759704082       -1.18339807834138        0.52581572795512
C           -4.51723799826678       -2.19422257714399        0.59045647904048
C           -3.95856463337206       -3.35747396718344       -0.04316085095822
C           -2.68039002120879       -3.03458122614041       -0.42721752157540
C            5.84834127016048       -1.39651473213919       -1.31151019816425
C            5.99197393367257       -0.04697693682808       -1.68712114022496
C            4.90393733372582        0.86916747923803       -1.54890015527028
C            3.67531754496699        0.46623229876956       -0.94263998657274
C            7.21095676819495        0.41493769382908       -2.23267646248889
C            7.34675690692908        1.69776640921614       -2.67938163692588
C            6.24971731963953        2.57059621512691       -2.63203464273991
C            5.06394207087120        2.16280060062869       -2.08586613903554
C           -3.69406662231644        0.12510168367777        0.95325738035007
C           -4.90899954684853        0.36583396815760        1.66306190348631
C           -5.93343785173109       -0.62831972287622        1.71937976017276
C           -5.73932394597338       -1.89784739010807        1.14109406482150
C           -5.11259987466423        1.56116108680722        2.38207987183995
C           -6.28332901686109        1.80722473107879        3.04498965774529
C           -7.32083420932063        0.86354056735192        3.02772375189454
C           -7.14067782475201       -0.33000207547173        2.38997807982102
C           -4.66802172607610       -4.61249821046021       -0.27496576920079
C           -1.79129922433245       -3.87584061948727       -1.22393287373848
C           -1.61156904323409       -5.21694986803093       -0.89467034284074
C           -0.84242749099440       -6.03504457019166       -1.70029924387257
C           -0.23205502898382       -5.52549321263073       -2.83352891356036
C           -0.40132086163118       -4.19080126742683       -3.16545459300113
C           -1.18237695102722       -3.37168775407090       -2.37426792748235
C           -5.35501391799565       -5.22702770138845        0.76988123420811
C           -6.03386488202641       -6.41320701981621        0.56049836323671
C           -6.04013324129174       -6.99945866719598       -0.69389528962600
C           -5.36435191276557       -6.39207769881832       -1.73953253387377
C           -4.68367316591631       -5.20734187042973       -1.53426548306275
C            4.91436788844987       -4.33311563670328       -0.37571659804507
C            4.88643328414601       -5.25634598045131       -1.41492016791401
C            5.66387463432586       -6.39858312811718       -1.35574336049085
C            6.48346081388994       -6.62648116506260       -0.26316538353395
C            6.52588887772957       -5.70500776738922        0.76904785660176
C            5.74756081498586       -4.56308333130417        0.71272502484167
C            1.98164790055622       -3.89117273926999        0.63747517697243
C            1.36517935766005       -3.53411452835914        1.83868176485080
C            0.63393903990977       -4.46213535421499        2.55287917475121
C            0.52125197159791       -5.76400938279414        2.09263200147536
C            1.14434451855947       -6.13045133614353        0.91227207695909
C            1.86636657182867       -5.20197523106420        0.18498607832184
B            2.47429219083538        1.29919288678015       -0.43868536721015
B           -2.56456180055950        1.08979634282037        0.52451471692694
C            3.94436352766845        6.29057841553218        0.26832358724961
C            5.38005563962288        5.76449193990668        0.18269801907925
C            3.73575376022789        7.28636504897258       -0.88190953013471
C            3.78356286824744        7.00868154824615        1.61607929124190
H            0.06335907616399       -2.76337803042223       -0.22801278080634
H            4.29658681345173        3.58812754756421       -0.05864582996145
H            1.25801950348509        6.58208563428108        0.36458947722144
H           -1.65701587066185        6.49043746944941        0.49757542883799
H           -4.52193872690560        3.30031052730670        0.50320089154927
H           -5.01896774882352        7.71530099181509       -0.59993760983400
H           -3.27408544431168        7.48941250193644       -0.66939202268709
H           -4.33499310492323        6.39523005037675       -1.55315231402486
H           -6.46285224975566        6.22977335536580        0.65927097314460
H           -5.86412473645519        4.78814544826495        1.47173423092446
H           -5.91885290906767        4.85682781945504       -0.29714952970002
H           -4.17675334302895        6.19847057449957        2.74046912104820
H           -3.18493761832586        7.37628694913561        1.88395647620554
H           -4.93060225249884        7.59461901228925        1.96478023937873
H            6.68258344385827       -2.07676945459980       -1.40505825087271
H            8.03435406117732       -0.28209078238404       -2.30635633348283
H            8.28389178415916        2.03789379008118       -3.09573097874112
H            6.34575794257738        3.56594350039407       -3.04247468576394
H            4.20959262325548        2.82019535489892       -2.09296106255542
H           -6.53981792831985       -2.62309009966785        1.16048330963509
H           -4.30159022586565        2.26956513578868        2.43350747521421
H           -6.41204571139516        2.72681317384889        3.59807476581295
H           -8.24641509411335        1.07620025843051        3.54242594847755
H           -7.91660593477838       -1.08283052197310        2.40594687937624
H           -2.07559805354371       -5.61009680945711       -0.00294298315256
H           -0.72098812414297       -7.07644142587528       -1.44283063450395
H            0.37017676413694       -6.16748164669593       -3.45943404358304
H            0.06918788514189       -3.78868451085220       -4.05104249520752
H           -1.32823429351119       -2.33558645897123       -2.64574787369031
H           -5.33830515098805       -4.77809471490985        1.75232932659438
H           -6.55947064355430       -6.88221104621635        1.37943715184389
H           -6.57091124980344       -7.92572044506475       -0.85790281016043
H           -5.37075000692935       -6.84312578868669       -2.72087757632521
H           -4.16612235661180       -4.73001689526988       -2.35329956637389
H            4.25719139502155       -5.06985038667235       -2.27446483739229
H            5.63350036185886       -7.11202000897582       -2.16640685855009
H            7.09094012276815       -7.51835193492529       -0.21839156601041
H            7.16963349663870       -5.87527202164221        1.61974752794277
H            5.77942656877291       -3.84166376145742        1.51630394199753
H            1.46590430158368       -2.52386195438622        2.20850750395145
H            0.15641878197975       -4.17178740189233        3.47742476059303
H           -0.04772964500168       -6.48944914036082        2.65591168310121
H            1.06796175398509       -7.14587144101110        0.55345074208598
H            2.33426786816304       -5.49073664493137       -0.74305265929111
H            6.07510768372277        6.59674456822313        0.27843490487806
H            5.58941676455897        5.06043283787484        0.98478121526022
H            5.56677147088263        5.27948491486743       -0.77252633530502
H            4.48705001794977        8.07247508579992       -0.83906288021789
H            2.75493066914623        7.75198896031521       -0.83363525581411
H            3.82345980339709        6.77681553771671       -1.83973003224381
H            3.89920287477518        6.29984216774675        2.43343901960788
H            4.53971769693610        7.78380089198298        1.72166649934812
H            2.80627297421007        7.47471141377364        1.70604907809701
