132
energy: -196.943044421042 gnorm: 0.002988534748 xtb: 6.7.1 (edcfbbe)
C           -1.25424192220891        0.35856360380455        0.23489078068149
C           -1.18191291251763       -1.03934238127885        0.04029774179685
C            0.04501870204618       -1.68645391366357       -0.06869935992363
C            1.23117846417604       -0.96066065382608       -0.09837309431189
C            1.22218474638547        0.45112671113386       -0.10223307296355
C           -0.03301855458329        1.04781456279207        0.11713767390884
N           -0.06786867779283        2.40109343443450        0.21570151600702
N           -2.38403577517491       -1.72152552857577       -0.00446959634653
N            2.47041885673836       -1.56988043231743       -0.17682971109227
C            1.01888854369311        3.22815156444891        0.14792314000163
C            0.60120863331670        4.56589230537011        0.31046800688376
C           -0.84444817499003        4.51956737366832        0.43831317918987
C           -1.19504047600788        3.15343790953047        0.39580468046290
C            2.33036562011050        2.81809084709999       -0.07403796009639
C            3.27046725728319        3.85712829202849        0.01167847701937
C            2.91820139887481        5.18968635950866        0.20008205621249
C            1.56909101339695        5.54953030836509        0.32024703280939
C           -1.86101217994614        5.44506170071995        0.55549958647967
C           -3.19107899721144        5.00507185166406        0.58983427691592
C           -3.47695041462775        3.64364709004924        0.56905290144600
C           -2.48617813369386        2.64930708427875        0.52387895815646
C           -4.29029706287600        6.05867903548910        0.65854022368790
C           -4.18567629057075        6.97051241910838       -0.57256107709837
C           -5.69771636339608        5.45564896700060        0.68211529566845
C           -4.11027113279964        6.88849178256012        1.93810159134962
C            2.83645406440810       -2.90260647223502        0.01171611338996
C            4.11348458503724       -3.09668044480354       -0.44925673152883
C            4.59248291114158       -1.83230377064040       -0.92984623249527
C            3.54747094006285       -0.89471910635081       -0.70219776584025
C           -3.53057821830253       -1.17122527823107        0.52055278610923
C           -4.54427608108845       -2.16941595960182        0.52184801914797
C           -3.96299096049643       -3.33956691065366       -0.07819059874058
C           -2.66240503455728       -3.03038297416292       -0.38983726416622
C            5.78059433591267       -1.40769419760919       -1.47009402326940
C            5.90412332728460       -0.05903870335890       -1.85624995506170
C            4.83650835610937        0.86518808919016       -1.63618634069700
C            3.64884025096719        0.46669388373757       -0.95140428072656
C            7.08401262331342        0.39420451568644       -2.48731461202920
C            7.20086701138602        1.67939499013331       -2.93282485034946
C            6.12053211676311        2.56356945253418       -2.79607992027333
C            4.97270242017162        2.16301635086311       -2.16971521758971
C           -3.71519081924477        0.13404995896711        0.95550280499536
C           -4.96609578513913        0.38022861278764        1.59901326897984
C           -6.01023142089113       -0.59364280930806        1.56832552412811
C           -5.79679873093679       -1.85949212599526        0.98915925298000
C           -5.19271137825201        1.56052106477662        2.33562641224834
C           -6.40105965071230        1.81774188328914        2.92224970927524
C           -7.45659198723713        0.90167183298757        2.80582087963450
C           -7.25635515115347       -0.28209127190643        2.15604870257564
C           -4.67296996564634       -4.58676424269469       -0.34068925459469
C           -1.73652925790385       -3.90297358436342       -1.10880807871248
C           -1.56279609319319       -5.22296426222113       -0.70007328102597
C           -0.74772594719588       -6.07410250530291       -1.42112472035380
C           -0.08809334248650       -5.61887104041728       -2.55033221221669
C           -0.25598775632122       -4.30751643673632       -2.96474411563313
C           -1.08149917525318       -3.45585350971389       -2.25690301678080
C           -5.45494974060177       -5.16455753920030        0.65725910865962
C           -6.15185210577777       -6.33331106443002        0.41519241733479
C           -6.08176356301730       -6.94139726130244       -0.82680750117435
C           -5.30730942431259       -6.37405179310008       -1.82527397773831
C           -4.60885888623150       -5.20629521076386       -1.58751136192819
C            4.90518150332110       -4.32916178975122       -0.40641800247523
C            5.27570327007916       -4.96241840185975       -1.58796613917903
C            6.02546540182437       -6.12373672886145       -1.55326796398796
C            6.43031095944569       -6.65344351967694       -0.34098473872136
C            6.07683006714613       -6.02065814534959        0.83787257766144
C            5.31400028511172       -4.86817068591683        0.80787219387791
C            2.04005653345466       -3.89032315771524        0.73049068354569
C            1.34969904173983       -3.54651826660623        1.89428491999951
C            0.64807430599491       -4.50362991942386        2.59956702304773
C            0.64402433924212       -5.82207049420589        2.17342101241961
C            1.34722922039674       -6.17591109221737        1.03508755016816
C            2.03302014670992       -5.21896793471212        0.31197987707654
B            2.47705132725031        1.30147329911300       -0.38379879793271
B           -2.56067624220864        1.09633147642122        0.59234271474676
C            3.96282030122418        6.29798232458317        0.25409968446411
C            5.39747538965282        5.77452877668230        0.13881717899608
C            3.71646414031650        7.26659962214853       -0.91217220382477
C            3.83882400741951        7.04720646156824        1.58832283281941
H            0.07899567215825       -2.75867331799081       -0.13470457923368
H            4.31124426186814        3.59029294677093       -0.05913894436518
H            1.28198545427810        6.58339945576376        0.43615220701075
H           -1.62609781673676        6.49762888159158        0.59782578807062
H           -4.50396791606769        3.32044556625580        0.56903690547581
H           -4.98012128127577        7.71385256213174       -0.55882595635168
H           -3.23350695288825        7.49311775240506       -0.60216923938119
H           -4.27906416116656        6.38222280291604       -1.48316411844674
H           -6.43219776329594        6.25744702148697        0.73076378057917
H           -5.83910284299760        4.81761855364504        1.55121688080567
H           -5.89292119521244        4.87739308385011       -0.21793801499958
H           -4.15252289966386        6.24301015877936        2.81320163352204
H           -3.15666972572451        7.40930889195038        1.94583574243667
H           -4.90194425850157        7.63067948497963        2.01816976359886
H            6.60248916750065       -2.09220825978142       -1.62271592784327
H            7.89229315501983       -0.31058194863629       -2.62541378208580
H            8.10853815209863        2.01345431938984       -3.41380232335979
H            6.19895456396406        3.56246686464380       -3.20144360674477
H            4.12920440383946        2.83127423759245       -2.10622539451602
H           -6.60698009609510       -2.57250943516462        0.94435844202842
H           -4.37114127691913        2.24654466106487        2.46426316863869
H           -6.54762195794721        2.72486070902036        3.49125810996470
H           -8.41242848215385        1.12592194935252        3.25600002368811
H           -8.04648005796328       -1.01783284634999        2.09889026241458
H           -2.06583531944514       -5.57355242317668        0.18857473625567
H           -0.62749492182294       -7.09756921198782       -1.10032853884414
H            0.55311964228077       -6.28393693555440       -3.10946971463184
H            0.25215361964432       -3.94883488962365       -3.84813920870181
H           -1.22386772337643       -2.43725191345034       -2.58940479942670
H           -5.49612070826696       -4.70000775183697        1.63158917823865
H           -6.75267940032533       -6.77273505201087        1.19942130467986
H           -6.62982161558327       -7.85241231020933       -1.01632130452143
H           -5.25364437204512       -6.84193765631678       -2.79729489838017
H           -4.01554106343334       -4.75981714358682       -2.37341975101291
H            4.95740828197045       -4.54580573493017       -2.53241144066858
H            6.29435565713867       -6.61820447788366       -2.47470883834891
H            7.02084327779625       -7.55745713913203       -0.31505749044687
H            6.39969919789052       -6.42628506848480        1.78461645470339
H            5.03448603110309       -4.37317806053111        1.72626439594546
H            1.36909422068265       -2.52466917959777        2.24542678372540
H            0.10815104198190       -4.22150803133697        3.49158092958469
H            0.09917949547474       -6.56984919274299        2.73010182419930
H            1.36211580007478       -7.20405302011698        0.70662950145089
H            2.56165950864774       -5.49590747493424       -0.58683214751021
H            6.09181967060716        6.61075515208427        0.19693044078034
H            5.63166131688055        5.08818938865735        0.94928816592893
H            5.55894385172616        5.27023151700170       -0.81100979936310
H            4.47566065531596        8.04668654537542       -0.91952771551827
H            2.74198611972584        7.74228186749960       -0.83552518293062
H            3.76103068961836        6.73196776224627       -1.85957463201605
H            3.98095630032399        6.35923022240986        2.41931786361739
H            4.59519205614935        7.82680128534303        1.65264990608737
H            2.86336991083604        7.51348055367989        1.69613981951914
