132
energy: -196.932111604880 gnorm: 0.006108518969 xtb: 6.7.1 (edcfbbe)
C           -1.26020091158024        0.35028607103604       -0.08785473053494
C           -1.17869560689730       -1.04747328529718       -0.25146298528050
C            0.05269140523924       -1.69470438028241       -0.33635708253460
C            1.24094936043115       -0.96734017090996       -0.33278017416402
C            1.22613602739133        0.44942113211383       -0.31710960323574
C           -0.04060349282056        1.04494155432736       -0.17347718262372
N           -0.09651866096182        2.39926997158570       -0.08078023354184
N           -2.37974924792222       -1.73620533931912       -0.23595025743387
N            2.48517700649002       -1.57598290918309       -0.31774584371234
C            0.98222454233327        3.23791696200941       -0.04972377005827
C            0.54183501945608        4.57048018811796        0.09384451209207
C           -0.90901999563255        4.51113065193965        0.10617105840129
C           -1.23936798988561        3.14134314672418        0.03832414968126
C            2.30974834128982        2.83243870638590       -0.13022792486441
C            3.22961721428724        3.87030405512577        0.08808149711015
C            2.85384471439435        5.19853329462209        0.25986322112065
C            1.49904272858075        5.55595021756326        0.22809489616787
C           -1.94384165698350        5.42366116606264        0.15719597523417
C           -3.26871348530970        4.96822853751106        0.11672619029244
C           -3.53539508978620        3.60282868216242        0.11428135405591
C           -2.52839518110474        2.62588421925475        0.12775293077314
C           -4.38536966189667        6.00531736520035        0.09389554374977
C           -4.20112177968325        6.90885387262869       -1.13415186899863
C           -5.78121963573185        5.37999324807630        0.01197180133299
C           -4.31762660050888        6.84671329762878        1.37631220016529
C            2.83928898294861       -2.90697022991784       -0.11300489495595
C            4.20252037208373       -3.04300157288151       -0.12932753281085
C            4.75101621521168       -1.74401911809612       -0.40984803638638
C            3.64524578387624       -0.85576549809115       -0.50567033365697
C           -3.45974052723135       -1.20647927529196        0.42664908550320
C           -4.39507218136466       -2.25058074796425        0.65379422059578
C           -3.85469204007990       -3.42853828847250        0.03371708327352
C           -2.65964188856190       -3.07212222601970       -0.55280290087367
C            6.02421905232540       -1.27498632503413       -0.61633833746444
C            6.19820907881866        0.06729569326029       -1.00460510042873
C            5.07514382880134        0.94065473419783       -1.11337767912877
C            3.76844197591691        0.50693681207923       -0.73806135062940
C            7.48274536842846        0.55951755103416       -1.32667778019100
C            7.65458282710288        1.82614105074235       -1.80556709411695
C            6.53744407931728        2.64823346082257       -2.01776238333259
C            5.28543659386250        2.21431455167655       -1.68039517353512
C           -3.65429820220579        0.11544977795127        0.79884094921835
C           -4.81925347373141        0.35626338223878        1.58650368692568
C           -5.76947496393286       -0.68301677120003        1.83025285798876
C           -5.55427034845095       -1.98580395160982        1.34072931223089
C           -5.03946757350821        1.60573870763708        2.20162292604756
C           -6.15728463316185        1.84894132440493        2.95009468926943
C           -7.12261173297756        0.84690833257255        3.13114180624676
C           -6.92342258886298       -0.39104069247306        2.59168740599791
C           -4.50723090182762       -4.73373224478561        0.12617611255272
C           -1.98916043721334       -3.74665747127596       -1.65811699022757
C           -2.05653025972587       -5.12853963870202       -1.84411352951874
C           -1.54743472376188       -5.71461787669090       -2.98793931375339
C           -0.93985064459501       -4.94526505320099       -3.96511049713074
C           -0.87101564573379       -3.57161433544585       -3.79788417032050
C           -1.40133780224802       -2.97814116153357       -2.67025133947655
C           -3.86813097477739       -5.77679865488889        0.79676156316996
C           -4.49651314954456       -6.99763311682741        0.95026234544270
C           -5.77389996979667       -7.19049300018350        0.44706319059449
C           -6.42319877044894       -6.15359303530393       -0.20078958692444
C           -5.79754512096801       -4.92926238710190       -0.35609221105135
C            4.97984252164288       -4.24537229022505        0.15625244528240
C            4.67290608236496       -5.47765856906416       -0.41505034907105
C            5.41351209569463       -6.60113437485754       -0.09960137805655
C            6.47717388321335       -6.51251206472473        0.78247533058514
C            6.79849872038181       -5.28918391616719        1.34705602209025
C            6.05703154338825       -4.16505117675675        1.03830219984420
C            1.92367745817587       -4.02723187269205        0.16083238524381
C            1.64187760526119       -4.38201210857729        1.47889015689718
C            0.90867681854537       -5.52312561640083        1.75098136202416
C            0.46895370488835       -6.32952923990408        0.71249776557979
C            0.74625512125390       -5.98176230163925       -0.60193995281597
C            1.46207992185308       -4.83260771194782       -0.87960455142776
B            2.49632386164478        1.31741405324548       -0.42735872899179
B           -2.57019496260960        1.08068203642995        0.26902031179166
C            3.88353655809317        6.30074453022673        0.47977054318757
C            5.32206833560959        5.77670117479645        0.52211533845573
C            3.78355237977037        7.31532085534323       -0.66826683776941
C            3.59555877660342        6.99620639939284        1.81825529373778
H            0.07676050728987       -2.76981744013584       -0.38582375663118
H            4.27132617535614        3.60607857545067        0.14298518669203
H            1.19680194903046        6.58668337513265        0.33540002726293
H           -1.72497895713105        6.47934840864200        0.20953275602641
H           -4.55627682926348        3.26090150318819        0.08432530423225
H           -5.00425231629729        7.64100771762710       -1.18621191001371
H           -3.25650808154434        7.44446898023904       -1.09830304816022
H           -4.21921650938785        6.31184512667490       -2.04386305739026
H           -6.52869588843463        6.17058527312240       -0.01831094990176
H           -5.98738899477915        4.75701272734483        0.87930910343242
H           -5.89037958650740        4.78143266623268       -0.88971397257277
H           -4.43942236714298        6.20898916284743        2.24976569248416
H           -3.36653464544390        7.36484923033528        1.46392387659472
H           -5.11130382070670        7.59100897813480        1.37902717704676
H            6.88225635851075       -1.92552911288838       -0.53079478667173
H            8.32954792090530       -0.10197923583289       -1.20655359200709
H            8.64074009901995        2.19100688050639       -2.05316693231654
H            6.67511363858467        3.62323800595662       -2.46307695955650
H            4.42253899441196        2.82711736148503       -1.88688135073021
H           -6.28586845357874       -2.75978293058153        1.52331772287158
H           -4.28215568377693        2.36548719682277        2.09815012748767
H           -6.29914991518323        2.81276762221978        3.41813957287823
H           -8.00635724013518        1.05581775735266        3.71611992553103
H           -7.64263717749823       -1.18213696314585        2.75342229394627
H           -2.51658406160738       -5.75202888455902       -1.09730288771858
H           -1.63037541697286       -6.78461562381842       -3.11879604615465
H           -0.53358503717236       -5.40910488038254       -4.85194826210258
H           -0.41770849776385       -2.95402383782271       -4.56029258366817
H           -1.38002088018704       -1.90176051927013       -2.58735868029308
H           -2.88016041702229       -5.61188871937263        1.20654174849972
H           -3.99315538666800       -7.80107707536000        1.46841215307968
H           -6.26333692803518       -8.14607569602283        0.56678620347090
H           -7.42264336853667       -6.29989579736829       -0.58509947017751
H           -6.29990204523293       -4.11924590184764       -0.86481337489285
H            3.85652030883012       -5.55146970085849       -1.11652482887079
H            5.16032590135168       -7.55149795505424       -0.54720823088860
H            7.05345498400099       -7.39248590399467        1.02910159132650
H            7.62796872385566       -5.21456466500122        2.03547157004589
H            6.29469783528005       -3.21598153107110        1.49711127984918
H            2.01097845813043       -3.76487302974378        2.28751436213392
H            0.69710325855318       -5.79432772302739        2.77757643553283
H           -0.08175548316818       -7.23377803076349        0.92617027945402
H            0.41862680619146       -6.61559405556367       -1.41323818152352
H            1.66985561875817       -4.55502299206753       -1.90596339963947
H            6.00283553412437        6.60724436642808        0.69830304971327
H            5.45555057773186        5.05849995705257        1.32767851305726
H            5.59987963882552        5.30862047099666       -0.41917913180659
H            4.52225657623050        8.10355297125443       -0.53774081234632
H            2.80009933667042        7.77553830735526       -0.70966040985163
H            3.96936142236180        6.82299521708588       -1.62089990709428
H            3.64686569279291        6.27547833664389        2.63223234553547
H            4.33039405881180        7.77745397290881        2.00217617721577
H            2.60862022062145        7.45042728929975        1.82885001857768
