132
energy: -196.939002000031 gnorm: 0.009437240787 xtb: 6.7.1 (edcfbbe)
C           -1.24113863504231        0.34771905126981        0.12958465368764
C           -1.16862944612738       -1.04745522275129       -0.07646934161931
C            0.05761720411095       -1.68963264138726       -0.20942185273230
C            1.24331618684763       -0.96166887407497       -0.21122504077474
C            1.23501606573485        0.45066323510629       -0.19419555964784
C           -0.02343081253249        1.04271004812077        0.01489567527640
N           -0.06408735030843        2.39494816336697        0.12759245934034
N           -2.36941757068050       -1.73375568301148       -0.08618581803116
N            2.48300035293306       -1.57003078703086       -0.26075830732013
C            1.01958726776537        3.22676504576670        0.08687622264258
C            0.59354807136999        4.56103835686638        0.26079749493970
C           -0.85381973186398        4.50800515787423        0.37062079183196
C           -1.19549101579581        3.14062454388365        0.30875015429464
C            2.33660456734060        2.82076734980085       -0.10858987138426
C            3.27124194440894        3.86137945422778        0.01161630829286
C            2.91085717347688        5.19135142793828        0.20322063778499
C            1.55861951494465        5.54650979805534        0.30034543042585
C           -1.87924549520635        5.42409565105575        0.49519811514169
C           -3.20660510261361        4.97458052119274        0.52017489025475
C           -3.48159749725161        3.61158503225627        0.48803924737546
C           -2.48231969265086        2.62769804580909        0.43624128340219
C           -4.31952425950673        6.01385813787559        0.59175203874918
C           -4.22778564384049        6.92622317808717       -0.63970868565536
C           -5.71915748402068        5.39180372192513        0.61567428918888
C           -4.15356219030651        6.84586750795712        1.87193485095261
C            2.83813855228522       -2.90681449030240       -0.06539297215080
C            4.14562107823875       -3.09099077331429       -0.42899941244650
C            4.65486814612666       -1.81533310478374       -0.85034474417057
C            3.58913339228933       -0.88547718224015       -0.69932490758117
C           -3.48792322972816       -1.19706129098506        0.50856493785212
C           -4.48295997231103       -2.21019025556203        0.58877991077646
C           -3.92682953806359       -3.37093611373463       -0.04542015768505
C           -2.65692258587696       -3.04866346711054       -0.45005073838123
C            5.87189235760461       -1.38262933173159       -1.31420183340647
C            6.00804542060709       -0.03411310217382       -1.69964160218050
C            4.92275597573578        0.88275959071870       -1.54808822473346
C            3.69800831662776        0.47781029586369       -0.93771641004742
C            7.21747710758020        0.42494392373335       -2.26705754265730
C            7.34888629642441        1.70827173941492       -2.71403986104171
C            6.25651548073787        2.58569240093171       -2.64257598758290
C            5.07845119543153        2.17905445095427       -2.08032795503527
C           -3.66844379894678        0.10895557588897        0.94046994870704
C           -4.88230024961715        0.34632040151197        1.65302002265463
C           -5.90445081334870       -0.64953282429593        1.71608026141877
C           -5.70244318979454       -1.92386318842567        1.15025899015238
C           -5.08799931919084        1.54445436571828        2.36698647340493
C           -6.26161756939671        1.79546841742443        3.02268471152643
C           -7.30094328790773        0.85369632884026        3.00243383576571
C           -7.11628927784505       -0.34525374365917        2.37565128941024
C           -4.64330927891163       -4.62734843778145       -0.27027902616343
C           -1.79385590382066       -3.91176316292281       -1.25026566817942
C           -1.69067658999547       -5.26709388903908       -0.94051265574516
C           -0.95039849073471       -6.11443456169286       -1.74234664898382
C           -0.29383238987037       -5.62240484335390       -2.85772597388204
C           -0.38984756160036       -4.27668559474126       -3.17329084179571
C           -1.14090720360696       -3.42718495894542       -2.38413609293011
C           -5.04275269644991       -5.40455319570568        0.80935163030533
C           -5.73848733893365       -6.58170488348901        0.60322001745940
C           -6.06077177459996       -6.98543561796679       -0.68118253159662
C           -5.67398948725071       -6.21050890114035       -1.76437718644791
C           -4.96265095194720       -5.04286706559517       -1.56304445022832
C            4.94632502454709       -4.31940182396135       -0.35100396540083
C            4.84479690810814       -5.30268210639661       -1.33092841243119
C            5.61452733716098       -6.44872271011661       -1.25528815522131
C            6.50058459956251       -6.62133385357200       -0.20473489007521
C            6.61810140395152       -5.64104431837819        0.76597525398881
C            5.84731805363294       -4.49479781417121        0.69302401520737
C            1.97639593078897       -3.85514907314536        0.63650194061071
C            1.32961246707889       -3.45029312409999        1.80660118669747
C            0.50793393171042       -4.32033693136632        2.49114196710034
C            0.33947848504969       -5.62097062732066        2.03711379438081
C            1.01378566356687       -6.04334622736516        0.90853679181756
C            1.82243928578276       -5.16859884415844        0.20509627337586
B            2.49671052246105        1.30579283830438       -0.42640188389393
B           -2.54262957368788        1.07710276256205        0.51440586499676
C            3.95160590357009        6.30178549670940        0.28626341270598
C            5.39051319151617        5.78419038781896        0.19645363714945
C            3.72763456411502        7.27639640855183       -0.87888404481161
C            3.79931749430760        7.04326168199429        1.62185112392203
H            0.08935740457870       -2.75985800029511       -0.30097838979535
H            4.31438019449657        3.59850938812433       -0.03283343680597
H            1.26683711352016        6.57825861069304        0.42435814110357
H           -1.65348846521896        6.47809734586271        0.55260490990006
H           -4.50479277509783        3.27698886416592        0.48640869666853
H           -5.02352451558589        7.66832926391969       -0.61861754449870
H           -3.27621325432989        7.44903364345291       -0.67811369156247
H           -4.32962639835169        6.33737525532961       -1.54936333839381
H           -6.46390710962928        6.18384706500985        0.67114987680979
H           -5.84999831202504        4.74668469384499        1.48139877164299
H           -5.90987084602690        4.81642852287303       -0.28751117577936
H           -4.21242206669930        6.20198175293466        2.74757539171312
H           -3.19794149860412        7.36263527663101        1.89366387576645
H           -4.94377321764188        7.59128257404096        1.93845914133592
H            6.70664186217635       -2.06167106821706       -1.41182567832800
H            8.03698087964496       -0.27456850757113       -2.35840833263974
H            8.27805609969525        2.04630929866494       -3.14863158861050
H            6.35048319243579        3.58312227677950       -3.04851806196227
H            4.22599188270411        2.83889192607648       -2.07100765123960
H           -6.48910770251959       -2.66376196424328        1.18559188253732
H           -4.27661819905698        2.25233231812506        2.41823039732033
H           -6.39328717612464        2.71766248261088        3.57092841176261
H           -8.23089332550637        1.07337475314275        3.50644305707501
H           -7.89305419262180       -1.09700206051573        2.38851639652296
H           -2.18723266742088       -5.65013622676593       -0.06197318970226
H           -0.88662997212674       -7.16417210500626       -1.49473269381255
H            0.28782596153926       -6.28430428574186       -3.48336286890304
H            0.11618577554787       -3.88839999752824       -4.04549285537358
H           -1.22736466385283       -2.38195001643915       -2.64628262168162
H           -4.79126299164935       -5.08354785814038        1.81726419973367
H           -6.03222093505874       -7.18754279488646        1.45213791996109
H           -6.61355045223614       -7.89999663225612       -0.83938230723908
H           -5.93449414214270       -6.51706112393675       -2.76834598293649
H           -4.65865633667490       -4.43567906128976       -2.40483098621866
H            4.16950062445115       -5.15555327968841       -2.16249043622836
H            5.52532773104993       -7.20989377989891       -2.01734751987049
H            7.10256885247813       -7.51661119406646       -0.14632740583243
H            7.31276305812632       -5.77092156740052        1.58315428786442
H            5.93432615781004       -3.72841734950114        1.45007697768314
H            1.47121932828879       -2.44050731555963        2.16912322698323
H            0.00181713444979       -3.98649404990562        3.38423020407026
H           -0.30927313298175       -6.30145052559212        2.56721099303081
H            0.90503639431360       -7.06170559271583        0.56454123097510
H            2.32080705292610       -5.50189811860889       -0.68888013442441
H            6.07956979040053        6.62239027758947        0.27496729320053
H            5.61158575684041        5.09208776931242        1.00551997794281
H            5.57262383650126        5.28798378275718       -0.75367779526726
H            4.45286133431864        8.08669153057632       -0.83617117928206
H            2.73248198494996        7.71035075310945       -0.85061043007362
H            3.84614468626612        6.75879295143892       -1.82836303947122
H            3.94105338573818        6.35370490366469        2.45218886391500
H            4.54382366579398        7.83346276146448        1.69921397193240
H            2.81581477383959        7.49470858116814        1.71917965698525
