132
energy: -196.944706995115 gnorm: 0.000754474368 xtb: 6.7.1 (edcfbbe)
C           -1.24359384464239        0.34662982655270        0.24468896100236
C           -1.17074651228025       -1.05212923803737        0.05780735110055
C            0.05718099718702       -1.69764004785615       -0.05846102628001
C            1.24208607813766       -0.96883742639628       -0.10330755008784
C            1.22786019836727        0.44326199304501       -0.11250349249631
C           -0.02626893903994        1.03921453745469        0.11246758427440
N           -0.06478553506220        2.39339011959175        0.20187906855984
N           -2.37497014346185       -1.73355498713010        0.02593896294266
N            2.48526636127615       -1.57184451273591       -0.18657700158053
C            1.01818933387552        3.22417921348613        0.12265097986566
C            0.59786415956839        4.56201257329975        0.27793722391471
C           -0.84775232717513        4.51218870290112        0.41147259419484
C           -1.19284114843214        3.14432018676693        0.38166813502823
C            2.32900310619698        2.81531428381308       -0.10211939146107
C            3.26866144228300        3.85504012315294       -0.02514108926959
C            2.91526237197989        5.18737487625858        0.16120581674573
C            1.56567611665763        5.54614091585453        0.28259082390821
C           -1.86908034498163        5.43328257742590        0.52663130148034
C           -3.19706545075026        4.98742891370243        0.57283165669512
C           -3.47636303525337        3.62479559877338        0.56480896209337
C           -2.48060062584437        2.63616278252950        0.52217229396874
C           -4.30318361865717        6.03326038976298        0.64905631093634
C           -4.21046019667974        6.95570997831213       -0.57484968456177
C           -5.70665751047157        5.42051636488742        0.67191130825920
C           -4.12480509100754        6.85373505772075        1.93481586344569
C            2.86039915119872       -2.89747993350108        0.01585706686896
C            4.15082281467305       -3.08566719687218       -0.41574337693214
C            4.62491976952810       -1.81787054758726       -0.90055885685613
C            3.56407404548124       -0.89125231737324       -0.70243679683939
C           -3.51586142617210       -1.18008128260351        0.56082098131705
C           -4.53508039143724       -2.17256824467734        0.56695838666916
C           -3.96567150916551       -3.34114807172124       -0.04614904441131
C           -2.66476079195571       -3.03819893280310       -0.36543459015168
C            5.82021989294157       -1.37488885491633       -1.41061753695197
C            5.92776629425146       -0.03229659633431       -1.82311841559710
C            4.84110362389720        0.87627041080581       -1.64050208652035
C            3.65370255053628        0.46879243544785       -0.96193730296788
C            7.10766240799466        0.42947503838487       -2.44815070482882
C            7.20253320505496        1.70383202395264       -2.92879579336554
C            6.10336256085272        2.56953275351053       -2.82919421003061
C            4.95719538431567        2.16351389013561       -2.20313926984700
C           -3.69504602919837        0.12626285638660        0.99365785016078
C           -4.93959988442189        0.37962732765477        1.64546175093267
C           -5.98718663686517       -0.59065887820934        1.62614038739488
C           -5.78239589008891       -1.85758217246750        1.04602942637332
C           -5.15591778693166        1.56579814022235        2.37560723799612
C           -6.36006697700250        1.83211980382434        2.96717099870526
C           -7.41960383644018        0.91890103409691        2.86310812452813
C           -7.22813441872194       -0.27045206132458        2.22070276415623
C           -4.68777356457549       -4.57889372256373       -0.32357406652493
C           -1.75707247630992       -3.91135014643068       -1.10545511229507
C           -1.62377159819010       -5.24814026409649       -0.73759552515686
C           -0.84302891037801       -6.10396003805704       -1.49053010201000
C           -0.17208165480833       -5.63619706792391       -2.60768382418340
C           -0.29484578283191       -4.30678926675276       -2.97781300789437
C           -1.09010716813468       -3.45075534926508       -2.24123081900421
C           -5.46154845306058       -5.17197357274355        0.67202195713472
C           -6.16316443441252       -6.33511425041046        0.41621979918387
C           -6.10561383741690       -6.92149345885449       -0.83696051848384
C           -5.34243195015193       -6.33656833602502       -1.83413133938699
C           -4.63999999831769       -5.17367339216545       -1.58290953912106
C            4.94499027573734       -4.30903371937961       -0.35715092244606
C            5.66315668143114       -4.72428286739086       -1.47682425446450
C            6.42549946596288       -5.87677621796175       -1.43426984291472
C            6.48526931518693       -6.62930361983362       -0.27339784236842
C            5.78088566448491       -6.21971922840762        0.84728196927997
C            5.01780660528845       -5.06867871250221        0.80891060295965
C            2.04112897990700       -3.88720050237839        0.70903387756279
C            1.41059680781663       -3.56605390573768        1.91189498735334
C            0.69821931624671       -4.52567842705170        2.60406426620766
C            0.62238847771042       -5.82146751443804        2.11985133164885
C            1.25742401325019       -6.15097339293097        0.93428808540856
C            1.95527078986700       -5.19112582197643        0.22683164180980
B            2.47691093240493        1.29809362379881       -0.40294261463116
B           -2.54703425897749        1.08507459267561        0.60877213893083
C            3.96092151958062        6.29469479637624        0.21876117186928
C            5.39497700380559        5.77135103616095        0.09425978537883
C            3.71310586559651        7.27447179114371       -0.93733266545528
C            3.84210836460474        7.03100525322898        1.56084061561865
H            0.09070553253343       -2.77036606263855       -0.12036215493769
H            4.30905319658761        3.58822242598926       -0.10082170315031
H            1.27817015498360        6.58020601216865        0.39664602297012
H           -1.63944874615454        6.48740496877238        0.55929822265826
H           -4.50121400074322        3.29531794018572        0.57433912587260
H           -5.00585129821957        7.69772094719368       -0.54675477536439
H           -3.25957336998418        7.48015866778495       -0.60901266095132
H           -4.31222292589790        6.37544923764050       -1.48973829259702
H           -6.44626713153473        6.21730228256757        0.72483762082018
H           -5.84349519939128        4.77796856626482        1.53839083422188
H           -5.89898088328810        4.84464168943090       -0.23036611773788
H           -4.18095148969576        6.20323221470129        2.80537809234138
H           -3.16539206285067        7.36337754791591        1.95308129344257
H           -4.90918826589137        7.60376169960011        2.01335215009996
H            6.66551688274914       -2.03825234842707       -1.52154347926552
H            7.93275804681129       -0.26072517063513       -2.55733258018275
H            8.10845831710774        2.04303180954782       -3.40959123690746
H            6.16574152464016        3.55770813472485       -3.26248431421370
H            4.09983060087173        2.81622885351962       -2.16448573405566
H           -6.59597273286577       -2.56708908547083        1.00657875975456
H           -4.33051341283855        2.24932995837751        2.49396548621374
H           -6.50004056210650        2.74432360713125        3.52968299516348
H           -8.37208118810179        1.15070726974421        3.31693122098696
H           -8.02223406296474       -1.00269891988743        2.17343060888627
H           -2.13487266930201       -5.60945694315564        0.14201953913422
H           -0.76026672169668       -7.14172822669024       -1.20507727928095
H            0.44221274274359       -6.30559343431765       -3.19148157675667
H            0.22291640087104       -3.93756930177733       -3.85110369447703
H           -1.20178280485030       -2.41922967994784       -2.54403748703206
H           -5.49283888319786       -4.72405117354006        1.65478001471320
H           -6.75661731182644       -6.78772914388504        1.19781602482943
H           -6.65495271859473       -7.82980025686523       -1.03643788187473
H           -5.29875599549325       -6.78726039091328       -2.81511075067048
H           -4.05646531068802       -4.71323808596584       -2.36687559176894
H            5.60323396795023       -4.14742377880808       -2.38834132262013
H            6.97336586026191       -6.19093801218832       -2.31162332598985
H            7.08056563285307       -7.52998173317421       -0.24113099738943
H            5.82958185608732       -6.79984795689674        1.75760281933297
H            4.47988625031972       -4.74568958711847        1.68771544442101
H            1.48644996247812       -2.56129700651917        2.30292659827339
H            0.20898242936499       -4.26370449578111        3.53092561088531
H            0.07329350648655       -6.57271039749789        2.66789658710898
H            1.21100888870080       -7.16226243151064        0.55970246829096
H            2.43718760992172       -5.44411048774108       -0.70535832804609
H            6.08919910373484        6.60800603400211        0.14759608992353
H            5.63466789952462        5.08549032397316        0.90357587944430
H            5.55080060724739        5.26657436779087       -0.85626905950044
H            4.45868926483719        8.06690861331785       -0.92437623896165
H            2.73031160196494        7.73266448182656       -0.86827003829589
H            3.77948386338312        6.75377969160014       -1.89060077816986
H            3.99760235684936        6.33657207332553        2.38407240434703
H            4.59245731067314        7.81637005532618        1.62581677775476
H            2.86345042025011        7.48717291163265        1.68138552122082
