132
energy: -196.721735903520 gnorm: 0.294488499164 xtb: 6.7.1 (edcfbbe)
C           -1.25408677357348        0.27205316911667       -0.21522847324707
C           -1.24177653967442       -1.07837242049858       -0.32289098207687
C           -0.03259311754415       -1.70621304586309       -0.30078838289884
C            1.16270373371836       -1.06269031040983       -0.35158281622457
C            1.10023583620671        0.30862739613763       -0.40096902761372
C           -0.08771119997784        0.95762124057680       -0.27742655088992
N           -0.13921972705853        2.24467615393228       -0.17855430531174
N           -2.37366473820585       -1.72292108924696       -0.25427257871271
N            2.35343279850457       -1.60968882584311       -0.24410124823818
C            0.88269265268644        3.05094021869590       -0.10042778697156
C            0.48227102270342        4.34760706796296        0.05084012148969
C           -0.89233960652965        4.31238164475162        0.00357248846198
C           -1.21103272832645        2.98754579829210       -0.09735683143859
C            2.18288887230403        2.69104887752375       -0.12854174167714
C            3.07873363550612        3.68620573271944        0.13867391572351
C            2.70917522909777        5.00032698923130        0.31209077501890
C            1.38217339720834        5.32978925669375        0.22885182705866
C           -1.85195173450554        5.25382833072896        0.04611898628837
C           -3.16502311273674        4.87316590628012       -0.04337446235820
C           -3.46045147235527        3.53095012043527       -0.10958134708393
C           -2.49452326068671        2.56885240941953       -0.08937232815937
C           -4.24131139157865        5.94478781936284       -0.02410643827813
C           -4.01839941740790        6.89411908215874       -1.21839936796878
C           -5.66615531437195        5.36774406866456       -0.12988140346162
C           -4.14023458244943        6.71953189934872        1.30559556640723
C            2.73098022984866       -2.83754139972500        0.05412992029694
C            4.07588688057560       -2.93312735803612        0.16999769228407
C            4.56488386799967       -1.69593510589964       -0.13133985720830
C            3.46356240246536       -0.91269301279302       -0.35675600270117
C           -3.42693859344550       -1.17759302031192        0.30177201732625
C           -4.37658608755959       -2.13924748200571        0.51980678117345
C           -3.86183714713066       -3.29066472660811       -0.01191678621408
C           -2.67738520999886       -2.96494542613029       -0.58867742637462
C            5.81475582446922       -1.25790752237009       -0.33671501299267
C            5.98890217190993        0.00503718559873       -0.80830137738029
C            4.88923404658246        0.82304754520665       -1.00800464082506
C            3.63649257672805        0.37757386025562       -0.69258004401742
C            7.24428644801381        0.45371185864637       -1.10829705646737
C            7.41666786600056        1.68725470455500       -1.62833810578274
C            6.32418012951580        2.47853619038028       -1.88759887369515
C            5.08045305165817        2.04077534165514       -1.59261635263123
C           -3.60906709020666        0.09464245242597        0.70249493483774
C           -4.70499987589288        0.38542639605788        1.46702201992509
C           -5.64468921658352       -0.60332567097544        1.72144688675002
C           -5.47925997415966       -1.86343483928426        1.23122701110921
C           -4.87757557623562        1.61500699315622        2.03324149696329
C           -5.97276865456465        1.88791733107867        2.77622265412510
C           -6.92084364698752        0.91800515906851        2.99216909901839
C           -6.74743554072188       -0.31802919363208        2.47794086981805
C           -4.45904280308335       -4.50762280622007        0.16745035132115
C           -2.09040834606636       -3.64309342320663       -1.64118019911898
C           -2.48506701838498       -4.88363690293369       -2.06427908472411
C           -1.97178920078547       -5.49388429721603       -3.16188891331641
C           -1.04890477173002       -4.86281714146940       -3.94048630973959
C           -0.71443910802813       -3.58361144805539       -3.61315955780410
C           -1.24553919030411       -2.99515279087505       -2.51188998982698
C           -3.67190378627575       -5.54874151631221        0.57357057087239
C           -4.21793427352614       -6.76340610802156        0.81695694221980
C           -5.56492067717557       -6.94425151289589        0.67866014554383
C           -6.35644922570738       -5.89550483267825        0.30705209003536
C           -5.80663740578483       -4.67982897090221        0.06256228466032
C            4.89633295411400       -4.01900540964601        0.36367737849107
C            4.62538452635753       -5.23175861461984       -0.20010867694932
C            5.44664665556200       -6.29021535650837        0.00211968165500
C            6.56992909939417       -6.15113314212946        0.76519147364744
C            6.85856506155670       -4.93770352651845        1.31861122329372
C            6.02877287593183       -3.88378224723633        1.11686905039660
C            2.00695504285122       -3.99557377922692        0.19977606878174
C            2.27017638336793       -4.79813878897672        1.27247438074864
C            1.64384081558674       -5.99049559106669        1.41364906978888
C            0.76484322259953       -6.41217410547058        0.45806946729749
C            0.54387992864114       -5.63603423004421       -0.64276913103496
C            1.16081795704237       -4.43567302803012       -0.77219620878440
B            2.35759158726299        1.20379740845728       -0.53813971738410
B           -2.57870129383037        1.03021083817071        0.04949724766452
C            3.71957046413345        6.10607118251882        0.56872049717632
C            5.17361203640473        5.59845880764003        0.61870867378639
C            3.61875426594367        7.14182412760264       -0.56990893770578
C            3.39588047860280        6.76525953018169        1.92461343849361
H           -0.08374036932667       -2.76909548230476       -0.15239125719142
H            4.10852423184468        3.39709643644938        0.20782963713974
H            1.01217137546592        6.33674164676588        0.34561902012323
H           -1.54024591782319        6.28396864604289        0.12822662362452
H           -4.47284834898249        3.17633488952431       -0.16358716901216
H           -4.80507735944829        7.66272867687008       -1.24868051768689
H           -3.05474125586065        7.42246216333541       -1.16721715505001
H           -4.04784799358516        6.34079425752516       -2.17091701029403
H           -6.40616254934453        6.18314242069057       -0.11828665728888
H           -5.90920861772552        4.70814538175598        0.71784580654680
H           -5.81757135479831        4.81454099502476       -1.06976590104638
H           -4.25622007798975        6.04038574057843        2.16577690449955
H           -3.18023893718762        7.24456446064056        1.41984935436188
H           -4.93233424374110        7.48089917032875        1.36605706182492
H            6.66895941401470       -1.90642819707864       -0.24397512489102
H            8.09922673254539       -0.18792714952943       -0.94138664500029
H            8.40866620052835        2.03460460822959       -1.87285927151692
H            6.45479381943955        3.44650504542309       -2.34825698904348
H            4.23093882108908        2.64739544884266       -1.86677661055497
H           -6.19649825924370       -2.62629437731530        1.47880163042885
H           -4.11728191103353        2.37139648282066        1.92915094936888
H           -6.09064064725936        2.86732110481984        3.21604110788438
H           -7.79101197551531        1.13406628540778        3.59285703131344
H           -7.48258370595147       -1.08859298978084        2.66908167534270
H           -3.26501828242861       -5.45228961106999       -1.58869080822429
H           -2.31985472587181       -6.48009265243850       -3.43550170080725
H           -0.65021584528671       -5.33479047903770       -4.82625655410629
H           -0.05131633028188       -3.02023134405335       -4.25496002824058
H           -0.99759632423778       -1.94644477044853       -2.42129604962665
H           -2.60277670073719       -5.40793518819699        0.72241936071153
H           -3.58290371640150       -7.58029004106348        1.12694881689775
H           -6.00328141587605       -7.91323077283429        0.87101181331647
H           -7.42271415636309       -6.02986799345491        0.19391983761149
H           -6.45145983588777       -3.86960490580588       -0.26395348746499
H            3.77049269562677       -5.37214078625794       -0.85255096540238
H            5.21099729945657       -7.24089613944969       -0.45428218541640
H            7.22591942666765       -6.99474851859612        0.92770188241945
H            7.73740203143871       -4.81525256283784        1.93629799666312
H            6.26303156251464       -2.94829895331316        1.61740139539129
H            2.96874523491700       -4.48404924173827        2.04356901882829
H            1.84834919648339       -6.60237013532637        2.27973838008651
H            0.27160021368963       -7.36884506888853        0.55613588228166
H           -0.10154347426706       -5.99512498779761       -1.42687077103410
H            1.04610180018696       -3.86046885363689       -1.68555685345708
H            5.86100096044402        6.43812191685294        0.80613582433237
H            5.33080557463479        4.87375121974442        1.43252546135673
H            5.48432055243240        5.14143845957942       -0.33349777173334
H            4.36526343271831        7.93811952584172       -0.43033052765099
H            2.63421521305871        7.63039952984175       -0.61586344544010
H            3.80571685987798        6.66984306076555       -1.54807877734578
H            3.42605104280558        6.02354113668011        2.73895984775859
H            4.13173761057108        7.55051269584150        2.15398674114212
H            2.40345543210041        7.23999972123600        1.94016040860999
