132
energy: -196.934714761774 gnorm: 0.001145386446 xtb: 6.7.1 (edcfbbe)
C           -1.25135813135093        0.33096181345051       -0.00897484361098
C           -1.17556276146626       -1.06276926495219       -0.21422372801950
C            0.05170993857116       -1.70563039846529       -0.34642629204294
C            1.24042275729289       -0.98016327813893       -0.33677073185247
C            1.22930493205772        0.43462523739757       -0.30234918433677
C           -0.03364674725171        1.02685099422336       -0.11469155716775
N           -0.08294980613123        2.37933408808496       -0.00157207522859
N           -2.37636160664810       -1.75116396616683       -0.20235606612078
N            2.48257711478146       -1.58897660383282       -0.35420942375312
C            0.99661814716855        3.21720303377496       -0.01528765252024
C            0.56045211997576        4.55029374961908        0.13897345753992
C           -0.88906797199211        4.49032759331677        0.20856357968538
C           -1.22182266775748        3.12023957878070        0.15453435088728
C            2.32090114125693        2.81364798600170       -0.15314803534144
C            3.24685670823436        3.85538202678346        0.01660120648384
C            2.87596960338196        5.18458306821498        0.19286059443288
C            1.52023646732013        5.53852033262139        0.22076518373927
C           -1.92108898466728        5.40244706354015        0.29908581252481
C           -3.24651041584658        4.94626661609344        0.31467913371022
C           -3.51335920959408        3.58117662185419        0.31287486613156
C           -2.50726158598511        2.60318921054817        0.28174585982817
C           -4.36299939647967        5.98323393819379        0.34702135399627
C           -4.25283565708533        6.87245647849160       -0.90006526319857
C           -5.76090418318996        5.35748164752532        0.35831461158089
C           -4.21903583034451        6.84014972684395        1.61288964254934
C            2.83471109755939       -2.92343357984972       -0.15037265669215
C            4.18917559882378       -3.07551650960999       -0.28574850979026
C            4.72533699946346       -1.78332358906366       -0.62374468578496
C            3.62794264256847       -0.88022940166540       -0.63443435902727
C           -3.46238249200055       -1.23145348419734        0.46015854277691
C           -4.41311627357147       -2.27242263830747        0.63426035319769
C           -3.86849680048595       -3.43723538783573       -0.00466483038757
C           -2.65364592868189       -3.08149020102949       -0.53820907744593
C            5.98443531920175       -1.32712968997040       -0.92159721118832
C            6.14463981975491        0.01760452467346       -1.30890419292310
C            5.02881886517659        0.90846865884990       -1.32266905440713
C            3.74518821645147        0.48412406221810       -0.86283516346496
C            7.40966899162467        0.49571665935959       -1.71687475054055
C            7.56875338232981        1.76985799998310       -2.18086429599405
C            6.45407380479371        2.61424702885864       -2.28981090811261
C            5.22138398192817        2.19154677327835       -1.87384843789412
C           -3.64854133711335        0.07872549337778        0.87668763058207
C           -4.82272936918896        0.30173084833907        1.65730872133217
C           -5.79617058924579       -0.73052246372497        1.83174176485539
C           -5.58928628969894       -2.01517414468642        1.29384848623694
C           -5.03339638476433        1.52173121953239        2.33197663383309
C           -6.16541707758071        1.74972643896247        3.06470656594506
C           -7.15575262892660        0.76161462996851        3.16920695974658
C           -6.96474040039982       -0.45287382477045        2.57609782214347
C           -4.56948604783623       -4.72495997266099       -0.01993300233936
C           -1.91162061736739       -3.79407238277769       -1.57117416307438
C           -1.85196827552736       -5.18614942039822       -1.60865919600678
C           -1.24584212913624       -5.83614603243385       -2.66781410422914
C           -0.67229250208325       -5.11518118700712       -3.70031482009433
C           -0.73084777943011       -3.73095726170430       -3.67808242443406
C           -1.35394710315236       -3.07676372392111       -2.63476924991031
C           -4.12234933020115       -5.77194221890899        0.78216140312739
C           -4.81517029959971       -6.96769973583666        0.82294808415940
C           -5.96632806849161       -7.12988943510525        0.06979116433132
C           -6.42527653946656       -6.08820690024561       -0.71831724916300
C           -5.73515345631418       -4.88987607906073       -0.75935964998200
C            5.01590907392914       -4.25101072502005       -0.01516970660229
C            4.79559616913017       -5.48764903472784       -0.61286505550773
C            5.61447879298304       -6.56395310131531       -0.32363287605660
C            6.66911254871824       -6.42354185209602        0.56154967742653
C            6.90266348228373       -5.19478178811436        1.15657008579128
C            6.08572639059271       -4.11831272212828        0.86999786790510
C            1.89615028730291       -3.95429031516428        0.31320469780272
C            1.39618531653309       -3.89164310719948        1.61213395928141
C            0.55363455875878       -4.88034939651038        2.08365869379234
C            0.22183894349333       -5.95534098088364        1.27523258852200
C            0.71774845370210       -6.02594616707737       -0.01444477776991
C            1.53752574723998       -5.02406837835769       -0.50021886267173
B            2.49693059595554        1.29906942363610       -0.46431415328710
B           -2.55394993742714        1.05436129535426        0.38687225181228
C            3.91055262554942        6.29429814651445        0.34063274764267
C            5.35142693778864        5.77504839422218        0.33597580581414
C            3.75633777142667        7.27445186044553       -0.83147600533789
C            3.67948408762501        7.03045577266014        1.66823660912670
H            0.07509123710430       -2.77636502121903       -0.44259925417572
H            4.29092894970499        3.59402396233442        0.02767188324928
H            1.22089967039234        6.56975047150345        0.33029365175966
H           -1.70127484433751        6.45837733084359        0.33909943356899
H           -4.53476291044147        3.23979462107430        0.31854757293244
H           -5.05156554867611        7.61133103981366       -0.90682614118013
H           -3.30308108592772        7.39917797454124       -0.93148522604429
H           -4.33557823232864        6.26668226294829       -1.80025823413100
H           -6.50891482193017        6.14791832115895        0.37779639784353
H           -5.90792179605759        4.73467995593310        1.23765575098700
H           -5.93054404807003        4.75852489745094       -0.53350320563937
H           -4.27252371179714        6.21139904847711        2.49945719267011
H           -3.27181032774312        7.37207921718316        1.62990904970184
H           -5.02066375948171        7.57429096212092        1.66164527024374
H            6.84069120947724       -1.98567402813400       -0.89991085042319
H            8.25106867674234       -0.18198141750015       -1.67355499112033
H            8.54064594412896        2.12306448523486       -2.49344637386166
H            6.57568368487467        3.59897750796839       -2.71838050474375
H            4.35865967600842        2.82532461773965       -2.00351360767851
H           -6.33912120699356       -2.78276917212550        1.42214484363773
H           -4.25830651603868        2.26970026547417        2.28885113112852
H           -6.29933319116758        2.69084427508010        3.57909044529165
H           -8.05183490278863        0.95955986396808        3.73904365746894
H           -7.70147827414347       -1.23743458445160        2.68080512474064
H           -2.28428104272171       -5.76226881580527       -0.80777855895214
H           -1.22346224145722       -6.91634589871795       -2.68695066320521
H           -0.19201652345673       -5.62642284236513       -4.52158875780225
H           -0.30077893891273       -3.15707714867977       -4.48612326227907
H           -1.42426789021079       -1.99892968116698       -2.65112931192032
H           -3.23485196463642       -5.63460897958753        1.38539290989800
H           -4.46018847083016       -7.77405436189310        1.44867734474082
H           -6.50761513066250       -8.06396897543078        0.10293205661135
H           -7.32751012779663       -6.20881965458960       -1.30042378915517
H           -6.09342505662757       -4.07471331390199       -1.37136382746414
H            3.99203216075418       -5.60489668854178       -1.32189141598583
H            5.43091323819128       -7.51752514108942       -0.79752885801737
H            7.30804579543807       -7.26537451722881        0.78451734681618
H            7.72433975434412       -5.07593778621960        1.84822450995212
H            6.26241587512644       -3.16450690135439        1.34610287009075
H            1.66905180557034       -3.06055307165934        2.24608108397744
H            0.16320727755191       -4.81720316186227        3.08908187923772
H           -0.42489434073456       -6.73574137662549        1.64890742242397
H            0.46495181609998       -6.86286117280446       -0.64704965537891
H            1.87745265635485       -5.05470338367438       -1.52518602703059
H            6.03633477898115        6.61317933644558        0.45067743049072
H            5.52340221587085        5.08657854322789        1.16016855902529
H            5.58858916149992        5.27419618131689       -0.59947276092805
H            4.48963204744971        8.07438620841850       -0.75126276957467
H            2.76624560285130        7.72187677665776       -0.84861059867301
H            3.91199923600756        6.75688295932134       -1.77601435370146
H            3.75548968655166        6.33432517663568        2.50120226537755
H            4.42808760690709        7.80921208142271        1.80025050491098
H            2.69844032276220        7.49598906162815        1.70265492285071
