132
energy: -196.939212886643 gnorm: 0.010256149827 xtb: 6.7.1 (edcfbbe)
C           -1.24118074564629        0.35307630363532        0.12912084073893
C           -1.16781023378409       -1.04207532096426       -0.07673368269537
C            0.05857832246058       -1.68402180115416       -0.20637266668391
C            1.24450155127369       -0.95627710316637       -0.20503124047210
C            1.23589964394581        0.45574154607414       -0.18891597344770
C           -0.02337474474213        1.04812752396729        0.01689194375487
N           -0.06482670043100        2.40038661690350        0.12837096850435
N           -2.36774030462246       -1.72981982980521       -0.08937952125166
N            2.48395326038088       -1.56518820661983       -0.25120831511328
C            1.01897789879046        3.23203751385373        0.08995293623076
C            0.59296367855416        4.56638222684621        0.26419728529996
C           -0.85513206796899        4.51320788847804        0.37245739184404
C           -1.19644136606411        3.14568305239534        0.30924812315253
C            2.33618499248135        2.82513812974270       -0.10340546585250
C            3.27115819545534        3.86487726655551        0.01854986555990
C            2.91142526055774        5.19503138524375        0.20924829158738
C            1.55922540715391        5.55121733966436        0.30495164093491
C           -1.88162384068698        5.42843757486967        0.49651853462693
C           -3.20891655958406        4.97812217621317        0.51795996947258
C           -3.48311239747746        3.61498481477063        0.48553589070016
C           -2.48324112967285        2.63192688411371        0.43497930109213
C           -4.32362329185347        6.01588602696194        0.58364774931803
C           -4.22635772205702        6.92750221046780       -0.64803425241648
C           -5.72258555017593        5.39175053089394        0.59958834094772
C           -4.16712812349851        6.84942942062607        1.86364704564911
C            2.83692013513589       -2.90290819128378       -0.05778183382898
C            4.14245520341895       -3.08952183050813       -0.42854329641040
C            4.65274803603791       -1.81475901256769       -0.85135542034099
C            3.58969570748328       -0.88245740277747       -0.69407881471444
C           -3.48826557008548       -1.19399730212918        0.50254307009333
C           -4.48148224564630       -2.20892518276560        0.58210577427783
C           -3.92242116651882       -3.36933023236237       -0.05063097749230
C           -2.65182234132075       -3.04544879791378       -0.45237452999911
C            5.86852492620288       -1.38476153226129       -1.32156263533080
C            6.00618366822655       -0.03578280418082       -1.70449130719227
C            4.92405209145677        0.88418225608385       -1.54469113246630
C            3.69985480888550        0.48103488912492       -0.93108926266734
C            7.21424682411116        0.42066189994851       -2.27706220495339
C            7.34883021698772        1.70576484194942       -2.71772460888419
C            6.26054727022113        2.58719188869977       -2.63586740971789
C            5.08277418900530        2.18218586381942       -2.07169916331991
C           -3.66995900577222        0.11181282542493        0.93507157081573
C           -4.88334813350218        0.34627239078302        1.64993129679803
C           -5.90301320386638       -0.65236318311202        1.71468729206174
C           -5.70041398906076       -1.92477164554763        1.14540864362490
C           -5.08988925019296        1.54254761954965        2.36646719509280
C           -6.26094292718537        1.78741835870036        3.02949554304171
C           -7.29720188275818        0.84202114636793        3.01348002973629
C           -7.11235038388770       -0.35411613010945        2.38184587202347
C           -4.63912128320515       -4.62553945115966       -0.27102439042847
C           -1.78548846926138       -3.91121689373591       -1.24501781546955
C           -1.68166062793038       -5.26406172259160       -0.92576471980862
C           -0.93867739087628       -6.11594290515936       -1.72027719867782
C           -0.27997945816440       -5.63044564058244       -2.83715712130828
C           -0.37524240728992       -4.28649886133560       -3.16160343628965
C           -1.12900704380693       -3.43287275453733       -2.37964347416724
C           -5.08897790122533       -5.37198120460014        0.81668446221859
C           -5.78780028043307       -6.54802354909448        0.61484804251540
C           -6.06185787878806       -6.98124635371152       -0.67651579324870
C           -5.62772280175552       -6.23638171243723       -1.76507892637666
C           -4.91432892278517       -5.06949261576453       -1.56699885808176
C            4.93903490694699       -4.32163051441412       -0.36089528898852
C            4.84481807708569       -5.28509708542403       -1.36230430462141
C            5.60953892364777       -6.43537683213588       -1.30130594053324
C            6.48298418400075       -6.63230289553658       -0.24324482310900
C            6.59084415137050       -5.67302735195306        0.75111701770649
C            5.82469225138028       -4.52270747549941        0.69302004652474
C            1.97707716975798       -3.85209548077115        0.64473870268578
C            1.31931711957781       -3.44587194518409        1.80863555456299
C            0.49789548852458       -4.31880120984361        2.49056647458934
C            0.33911228707201       -5.62165159398929        2.04046224318050
C            1.02811764513451       -6.04634566537267        0.92060794047823
C            1.83637231922933       -5.16911577487577        0.21930315981347
B            2.49822227650741        1.31018719733377       -0.41992950298942
B           -2.54374565329842        1.08131834686997        0.51170409574296
C            3.95468210951571        6.30312074104240        0.29217732493082
C            5.39220000073975        5.78191142863031        0.20151271878222
C            3.73278152005889        7.27842916459940       -0.87265663788870
C            3.80534087566349        7.04439647400466        1.62802398579671
H            0.09031518728009       -2.75401532896158       -0.29799833782622
H            4.31402031507162        3.60115435599690       -0.02381125159917
H            1.26831042650886        6.58324754080746        0.42885968635047
H           -1.65680531678688        6.48256525145280        0.55587271414404
H           -4.50599821439874        3.27956606964580        0.48225982311074
H           -5.02422630371902        7.66740898128104       -0.63265856830478
H           -3.27588311650170        7.45306467344279       -0.68042785714066
H           -4.32044502605260        6.33776869364195       -1.55792988100841
H           -6.46908830763608        6.18269213216983        0.64932346884887
H           -5.85819154195829        4.74766251463480        1.46540614178637
H           -5.90687878546600        4.81499803017127       -0.30407176015541
H           -4.23535729464334        6.20780210607102        2.73998608638879
H           -3.21067932337219        7.36418464262585        1.89292614218321
H           -4.95619609344490        7.59675775271079        1.92164091353372
H            6.70108059643155       -2.06610112435411       -1.42594785821245
H            8.02989099810814       -0.28232869811939       -2.37685162325732
H            8.27715140942457        2.04195701673927       -3.15527732468948
H            6.35695373371044        3.58672001395139       -3.03554166964241
H            4.23309359643590        2.84540290718914       -2.05654232183709
H           -6.48661563177676       -2.66498770317833        1.18087865826766
H           -4.28122070155907        2.25415140783564        2.41507510725998
H           -6.39218839691373        2.70780143967526        3.58075236638209
H           -8.22479648541838        1.05640801591428        3.52444137604058
H           -7.88673024840539       -1.10858906115159        2.39746393772770
H           -2.18060330161553       -5.64143138964885       -0.04609066858466
H           -0.87527949845658       -7.16389548702470       -1.46767261203566
H            0.30177048321339       -6.29566784609632       -3.45808182852941
H            0.13356368178993       -3.90293606014801       -4.03406974544269
H           -1.21446613392442       -2.38911973579297       -2.64690873974902
H           -4.86673282093337       -5.03177895041103        1.82349099527835
H           -6.11855284048682       -7.13008969936283        1.46904745233444
H           -6.61782535407054       -7.89422805360613       -0.83320963785373
H           -5.85227160073254       -6.56631656059150       -2.77355026279630
H           -4.57554317636985       -4.48554817844764       -2.41233910707142
H            4.17811204694463       -5.11947808708565       -2.19791128056175
H            5.52661309368655       -7.18077332009139       -2.08134109416581
H            7.08130250217709       -7.53059424555714       -0.19713710728133
H            7.27392260921679       -5.82234244774417        1.57587836864610
H            5.90503476585349       -3.77320415300756        1.46877685021834
H            1.45370099134617       -2.43482385376475        2.16845572020183
H           -0.01976893992312       -3.98358451097897        3.37707401458031
H           -0.31133651569807       -6.30288266003852        2.56886829018951
H            0.92849960350964       -7.06622060328246        0.58022007202495
H            2.34751903285760       -5.50433342595678       -0.66793392171662
H            6.08384280606770        6.61759458568572        0.28564300358145
H            5.61051056398037        5.08474700643202        1.00682534897912
H            5.57433887524991        5.29066732352269       -0.75138415369504
H            4.45939528798182        8.08664343042803       -0.82914311264195
H            2.73831919449021        7.71380660568605       -0.84462065347661
H            3.85029372672448        6.76067313235010       -1.82190497508197
H            3.95302616603394        6.35559745767602        2.45762602580932
H            4.54754697895413        7.83692878350493        1.70197452761625
H            2.82073469970418        7.49244854685814        1.72943803302467
