132
energy: -196.944628328280 gnorm: 0.002366906313 xtb: 6.7.1 (edcfbbe)
C           -1.24779602167593        0.35072903777976        0.25040585116465
C           -1.17453289011083       -1.04898379946025        0.07230172500308
C            0.05284463141896       -1.69552548396087       -0.04081907540092
C            1.23761447556663       -0.96733894184803       -0.09595065626491
C            1.22374341148751        0.44452724158754       -0.11324055800116
C           -0.03026853079004        1.04177939468578        0.11069191203444
N           -0.06902048117312        2.39636144822215        0.18946881419161
N           -2.37836836422115       -1.73070497474938        0.04204265341930
N            2.47879828944488       -1.57288282592362       -0.18450959395884
C            1.01474845737608        3.22612427116288        0.10776467084032
C            0.59497131238995        4.56449486212850        0.25918018909966
C           -0.85060491171961        4.51578876628728        0.39311631442659
C           -1.19662462520480        3.14801396239081        0.36901699028374
C            2.32624599086323        2.81545175731972       -0.11017581248696
C            3.26647979392144        3.85445623610302       -0.02645927052000
C            2.91341576633141        5.18705979920233        0.15870278766048
C            1.56345193445544        5.54778634438978        0.26888949486929
C           -1.87012959752072        5.43848395317125        0.50907624096971
C           -3.19827333865331        4.99414777048359        0.56255292036914
C           -3.47869251700986        3.63165636564807        0.56176696197408
C           -2.48433181637352        2.64139673653560        0.51788845023315
C           -4.30195255653250        6.04215291316568        0.64353111752940
C           -4.20832688473858        6.97169733219066       -0.57498764396993
C           -5.70673017264617        5.43244833479402        0.66352906684595
C           -4.11957995865573        6.85516111234351        1.93363144623792
C            2.85016143228487       -2.90038858103889        0.01309105711253
C            4.13558903559740       -3.09322634655397       -0.43045030539452
C            4.61099726097285       -1.82723127724973       -0.91748450445543
C            3.55618698538637       -0.89595658746512       -0.70872837001409
C           -3.52214053760379       -1.17523900255754        0.56778910942517
C           -4.54206554052236       -2.16745940573018        0.56705000138004
C           -3.96926184353182       -3.33712183666520       -0.04097689527277
C           -2.66598126609691       -3.03474693081648       -0.35068567607117
C            5.80399258442927       -1.38971838212711       -1.43723298437562
C            5.91546107139188       -0.04640220639653       -1.84537603298125
C            4.83576026081772        0.86816553756215       -1.64978459936003
C            3.64938787766945        0.46437200130955       -0.96626798007902
C            7.09301962552517        0.41022281435993       -2.47900105213068
C            7.19326874028083        1.68652792663392       -2.95319482020697
C            6.10211702688442        2.56031545564033       -2.83698414800516
C            4.95798862292515        2.15845937303876       -2.20437286778971
C           -3.70197802913138        0.13250055647855        0.99677987128880
C           -4.95062814142897        0.38703930758132        1.64088039557022
C           -5.99888506858980       -0.58269500778796        1.61489711113996
C           -5.79235504194327       -1.85017416752548        1.03677217633779
C           -5.17136366557936        1.57299355350307        2.37003830017975
C           -6.37918728712681        1.83941940991980        2.95441693353401
C           -7.43856115485330        0.92689866375158        2.84345620229116
C           -7.24354202250764       -0.26210834074510        2.20152836055543
C           -4.68485708607081       -4.57714409348058       -0.32609819768026
C           -1.75103303694062       -3.90517171609758       -1.08572590285511
C           -1.60307117129624       -5.23804143209161       -0.71078947616179
C           -0.81252041080168       -6.08851994250509       -1.46008172902399
C           -0.14694749568795       -5.61868701281177       -2.57937223634217
C           -0.28555192992184       -4.29273640644102       -2.95678614522302
C           -1.09051869511093       -3.44249605835872       -2.22460424507790
C           -5.47640317503632       -5.16842654580641        0.65665334475456
C           -6.16502439914834       -6.33766405010063        0.39308132481961
C           -6.07499828979616       -6.93240935895616       -0.85443957854995
C           -5.29475468594234       -6.34898814088807       -1.83872494874642
C           -4.60644847921466       -5.17882445434321       -1.58034593888474
C            4.92546369653636       -4.32003528997986       -0.37890793266560
C            5.61921316285964       -4.74580946968722       -1.50914921009828
C            6.38123546272707       -5.89876705672213       -1.47170443994111
C            6.46319148133690       -6.64167369535425       -0.30661896661991
C            5.78046211005591       -6.22286697172305        0.82384240780466
C            5.01956834637977       -5.07013361614615        0.79154658117348
C            2.04074519531745       -3.88926967472727        0.71870830041666
C            1.42907136083052       -3.56541222606281        1.93032519916371
C            0.73985106956028       -4.52753435011054        2.64272656751153
C            0.66851065681219       -5.82717595591170        2.16908975160016
C            1.28066760841844       -6.15831432966435        0.97202582035379
C            1.95508080465194       -5.19645037077432        0.24514879057106
B            2.47418275188905        1.29706095624731       -0.40700623062381
B           -2.55198581288626        1.09021985956548        0.61175831600090
C            3.96003604328992        6.29245860480261        0.23529974083583
C            5.39464796396055        5.76756899225491        0.12501159255241
C            3.72837698855297        7.28236590214821       -0.91536706214480
C            3.82474211712179        7.01739370508263        1.58237560071544
H            0.08645603318881       -2.76871533281716       -0.09375596650843
H            4.30727420610691        3.58674144218261       -0.09331042168336
H            1.27627404311417        6.58212611563627        0.38099646374557
H           -1.63880945365371        6.49228598896967        0.53807508484286
H           -4.50392254535960        3.30367822693887        0.57879516034581
H           -5.00508508208749        7.71213100086021       -0.54383565167927
H           -3.25858927752751        7.49844022687694       -0.60428864257533
H           -4.30735926567276        6.39679366328839       -1.49352117349417
H           -6.44480673387832        6.23071745756933        0.71554381479555
H           -5.84677162835361        4.78965906356474        1.52926679342420
H           -5.89812823666131        4.85760589718946       -0.23962101241395
H           -4.16003208324570        6.19804226608357        2.80007461378249
H           -3.16521991664491        7.37451382729149        1.94541024748701
H           -4.91077556508514        7.59648274054346        2.02539936363027
H            6.64417570542939       -2.05794010809635       -1.55885750717625
H            7.91181341579407       -0.28561818855806       -2.59981607657634
H            8.09715373740053        2.02127696665267       -3.44117392829962
H            6.16851431687275        3.55158226929580       -3.26265332003345
H            4.10658995261315        2.81795918729183       -2.15373418934565
H           -6.60735580981788       -2.55759634341002        0.99116308037312
H           -4.34642830079127        2.25614641463697        2.49431766273724
H           -6.52216737140011        2.75139335782250        3.51657002533342
H           -8.39376770587151        1.15866700984484        3.29165964734914
H           -8.03752848367792       -0.99419444971227        2.14875894878721
H           -2.11016890282369       -5.60052969781865        0.17062773784169
H           -0.71803354469919       -7.12383016896921       -1.16937873451899
H            0.47535902230308       -6.28445190537957       -3.15873616016858
H            0.22759674845198       -3.92208881052283       -3.83220102659480
H           -1.21488915339425       -2.41385449331862       -2.53221470306079
H           -5.53218395731204       -4.71543864303509        1.63598251915923
H           -6.77274595490237       -6.78942256019569        1.16385012585721
H           -6.61264012703345       -7.84659164286038       -1.05944966961621
H           -5.22487361560351       -6.80598271322114       -2.81525466518139
H           -4.01051651623977       -4.71940197342999       -2.35486919268563
H            5.54278918838771       -4.17530536726008       -2.42493473211811
H            6.91379877761473       -6.21879373408777       -2.35650461506687
H            7.05892004133423       -7.54216217116378       -0.27869460448603
H            5.84612478935130       -6.79555547433836        1.73644213961280
H            4.49962325183105       -4.73886411914886        1.67827808585089
H            1.50263327529311       -2.55747064808327        2.31334114195567
H            0.26701093993036       -4.26426302046746        3.57755501558431
H            0.14071202249382       -6.58083551355419        2.73455642120330
H            1.23543444254794       -7.17242125323071        0.60501916505336
H            2.41990293584595       -5.45039070630763       -0.69532412705911
H            6.08939713229177        6.60261208436511        0.19313045921356
H            5.62276863139212        5.07571559052908        0.93243349472667
H            5.56147155041002        5.26940393773028       -0.82708404172757
H            4.47661747419006        8.07193952115263       -0.88746961389514
H            2.74656649730523        7.74363578865011       -0.85331998444612
H            3.80353613849346        6.76943297218389       -1.87220667368973
H            3.95203227599933        6.31214215187927        2.40114048529029
H            4.58548665965278        7.79016908348890        1.67119879664906
H            2.85087155221075        7.48748084432353        1.68687856199819
