132
energy: -196.934137132947 gnorm: 0.003678814854 xtb: 6.7.1 (edcfbbe)
C           -1.24971442527488        0.33717982168422       -0.01779417287797
C           -1.17188912666930       -1.05675677103033       -0.21656541569921
C            0.05583527358046       -1.69955119259460       -0.34059671522516
C            1.24612511867494       -0.97616243146084       -0.32455537101527
C            1.23505574352552        0.43860757400798       -0.28738368197483
C           -0.03070002916037        1.03202195902170       -0.11534122153891
N           -0.08215475398630        2.38495536695813       -0.00891537807780
N           -2.37219832755556       -1.74670106627872       -0.20532046181597
N            2.48692464113139       -1.58825715081286       -0.33449077786618
C            0.99622991877037        3.22337722113994       -0.01651020901709
C            0.55603056353567        4.55730511594029        0.11775895086096
C           -0.89405699177111        4.49620499074350        0.16936610625516
C           -1.22426337226292        3.12513327787998        0.12561285164561
C            2.32317661832488        2.82021515638468       -0.12984079031534
C            3.24417596308145        3.86509123149436        0.04888745804064
C            2.86831902167019        5.19533118128192        0.20574644360796
C            1.51214720753692        5.54820798078779        0.20375229845845
C           -1.92659653504965        5.40840431222978        0.24417894644388
C           -3.25157124044895        4.95106410310989        0.25113364431315
C           -3.51760442926210        3.58586995779855        0.25738706523417
C           -2.51055061829135        2.60819676543254        0.24509138388852
C           -4.36754839298288        5.98856930365959        0.27033208193448
C           -4.24110024793367        6.88057186565268       -0.97341614353063
C           -5.76567089664535        5.36391013788652        0.26320020132652
C           -4.23681071906269        6.84258505932864        1.53965790052082
C            2.83230191582651       -2.92690674020163       -0.14715974275361
C            4.18936760350784       -3.08037544856172       -0.25718317775812
C            4.73387343076676       -1.78471440968975       -0.56961186766861
C            3.63898589540350       -0.87858073609389       -0.58846060432965
C           -3.45575571582038       -1.22867452780543        0.46420151161920
C           -4.39606310465357       -2.27612920914407        0.65617406667672
C           -3.85213612222269       -3.44069125270354        0.01399579463402
C           -2.64702395337571       -3.07886500830524       -0.53958862889538
C            5.99750565814497       -1.32978091803316       -0.84818008673587
C            6.16727097956141        0.01716987998617       -1.22251168458361
C            5.05444162506590        0.91156641914049       -1.24561098721677
C            3.76216170884488        0.48742482554197       -0.80653051864333
C            7.43967226758611        0.49230925222938       -1.61083400530128
C            7.61055078791439        1.76856206472114       -2.06481927812837
C            6.50082064405284        2.61682135011714       -2.18402441276358
C            5.26026955130352        2.19629100708245       -1.78847474282953
C           -3.64782941761094        0.08510606608124        0.86761738440970
C           -4.82086657701237        0.30879656968322        1.65088713579669
C           -5.77879782723039       -0.73337070181227        1.85354140174627
C           -5.56429227287939       -2.02284609691189        1.33099769478840
C           -5.04942516323539        1.54145331044658        2.29653694931864
C           -6.18328045003940        1.77035592211461        3.02653619754210
C           -7.15447948216551        0.76800492203968        3.16551218870490
C           -6.94464187037411       -0.45828118732910        2.60386932597884
C           -4.54734179930341       -4.73103029460810        0.02682677275988
C           -1.92168505486010       -3.77557897225011       -1.59486267536507
C           -1.89387950588509       -5.16686391818404       -1.67619444864207
C           -1.31307613368188       -5.79793646206323       -2.76100724828957
C           -0.72881656933412       -5.06018049545828       -3.77534641418565
C           -0.75247974082497       -3.67634570409896       -3.70803632590373
C           -1.35285833666896       -3.04033678429982       -2.64048088591788
C           -4.06179102867687       -5.77544751970077        0.81008339468132
C           -4.75123311360261       -6.97143352469527        0.89072269548831
C           -5.93681284971678       -7.13773716833064        0.19470728042638
C           -6.43154842978412       -6.10057076210584       -0.57690953188801
C           -5.74544972236352       -4.90171173014943       -0.65709605789614
C            5.01028849732172       -4.25932193651900        0.01787790133194
C            4.77585716768011       -5.50471956688306       -0.55604411416922
C            5.58984981042888       -6.58213331362531       -0.25664490769899
C            6.65456324066719       -6.43616355428420        0.61568117790996
C            6.90228327483319       -5.19970281788822        1.18804947217393
C            6.08990849835205       -4.12235592056234        0.89150582323638
C            1.88692498837713       -3.97960277691520        0.25273929817109
C            1.37682336865407       -3.99944461159496        1.54765744257237
C            0.54361265387936       -5.02536898374070        1.95306552652242
C            0.23159825934587       -6.05433401003505        1.08172302471942
C            0.73393046196339       -6.04152506368237       -0.20733809983671
C            1.54377501877833       -5.00193967590415       -0.62559856904572
B            2.50600969652338        1.30348614810610       -0.43012397028328
B           -2.55673695487451        1.06046473470273        0.36586803192850
C            3.89630314518463        6.30797218659943        0.37528669085466
C            5.33878540800786        5.79402152499528        0.38893556398398
C            3.75809733440086        7.29933592815617       -0.78935379370010
C            3.63853678378905        7.03037634110943        1.70554993742023
H            0.07684193025172       -2.77024535961717       -0.43487091312221
H            4.28836049056169        3.60630244302191        0.08433490009253
H            1.20951268715432        6.57996537627993        0.29571293823452
H           -1.70771725252045        6.46464929281892        0.27896752181543
H           -4.53892830415692        3.24426219236996        0.25525367753771
H           -5.03751705961780        7.62185416539147       -0.98763052748299
H           -3.28967378995110        7.40500634107469       -0.99267283205242
H           -4.31497208452482        6.27714801143426       -1.87596492584310
H           -6.51385170201069        6.15454271449617        0.26379132935882
H           -5.92756401005022        4.74853637540279        1.14533037238289
H           -5.92060096090000        4.75774301388429       -0.62611333773906
H           -4.29538610599413        6.21170943041394        2.42419110246704
H           -3.29119745129912        7.37673556253384        1.56517715440718
H           -5.04084192668347        7.57455167155062        1.58386540889529
H            6.85213814543050       -1.99018003923836       -0.82483551878191
H            8.27710256469483       -0.18970715178521       -1.56105998450757
H            8.58797627225998        2.11954796780202       -2.36193054339801
H            6.63140921171874        3.60356263089182       -2.60571628129964
H            4.40335834452033        2.83476810165319       -1.92949484358774
H           -6.30535410087659       -2.79528953540666        1.47911836219533
H           -4.28838332197648        2.30199542740479        2.23134519029240
H           -6.33278981959297        2.72433571496517        3.51248550267929
H           -8.05081183446794        0.96497237668950        3.73578991982302
H           -7.66509712976291       -1.25366257473812        2.73621965586231
H           -2.33668677880842       -5.75763666674442       -0.89191711883223
H           -1.32000120790145       -6.87732864917860       -2.81408421854383
H           -0.27069310977547       -5.55694438930624       -4.61874127968921
H           -0.31360389495818       -3.08712937410881       -4.50014574153019
H           -1.39943405498897       -1.96169679885530       -2.62702022216128
H           -3.14675551857675       -5.63577597453608        1.36957831595145
H           -4.36596952182016       -7.77377867786276        1.50313217026820
H           -6.47710861562077       -8.07102420907078        0.26048786071501
H           -7.35965004953111       -6.22493073132753       -1.11547221585591
H           -6.13465530837076       -4.09130722462870       -1.25646162864940
H            3.96316640911571       -5.63122197258831       -1.25232294297907
H            5.39372020130531       -7.54194147870185       -0.71273819658722
H            7.28888514068287       -7.27923932330526        0.84693216774075
H            7.73094658081762       -5.07435139602270        1.87041238913186
H            6.27789743078217       -3.16424997358146        1.35431254788155
H            1.63491832466494       -3.20436720588943        2.23105977345014
H            0.14780919985465       -5.02824181296698        2.95639846899202
H           -0.40080307172251       -6.86745224255419        1.40679360423891
H            0.49707298602569       -6.84281232853868       -0.89104662832085
H            1.89306608210306       -4.96686943549878       -1.64783897702903
H            6.01912869372267        6.63367803022896        0.52011702776427
H            5.50116373887938        5.10020057654417        1.21043094410502
H            5.59107264014593        5.30085502459946       -0.54685849265320
H            4.48511629995456        8.10269847991347       -0.68637407936561
H            2.76634302095459        7.74223239866967       -0.82059309683461
H            3.93458738270236        6.79324694037537       -1.73640031916366
H            3.69512808096701        6.32553155081101        2.53245387620000
H            4.38461292116881        7.80675635048841        1.86214504716689
H            2.65715476259342        7.49640594538292        1.72266973745464
