132
energy: -196.934226994448 gnorm: 0.004672515495 xtb: 6.7.1 (edcfbbe)
C           -1.24828511809112        0.33530983184793       -0.01323619450036
C           -1.17097807939335       -1.05790264659515       -0.21442832518041
C            0.05675823923324       -1.70102808813143       -0.34001168333671
C            1.24689530637646       -0.97749141743870       -0.32416239518772
C            1.23575613269395        0.43701480860479       -0.28539502237142
C           -0.02935724398644        1.03032047200128       -0.11004615353569
N           -0.08064647564613        2.38306349402587       -0.00163572070945
N           -2.37022001369257       -1.74905835048794       -0.20302700540657
N            2.48712777334028       -1.59034691272066       -0.33750418108464
C            0.99755866892841        3.22141446232511       -0.01036890586474
C            0.55765752334854        4.55503351132999        0.12657490855706
C           -0.89223248052102        4.49395050354476        0.18191823919144
C           -1.22225350451747        3.12312409519179        0.13690770440360
C            2.32424218201003        2.81876732975037       -0.13012586481151
C            3.24575671314224        3.86365891524401        0.04410826986036
C            2.86970616169592        5.19377962873855        0.20312870715983
C            1.51364817538905        5.54631434823991        0.20805769184241
C           -1.92495080508909        5.40610555801789        0.25805821082838
C           -3.24966402766176        4.94854980959603        0.26543303295733
C           -3.51587381609817        3.58325732577590        0.26940813802285
C           -2.50869537894633        2.60611778172909        0.25512041755360
C           -4.36638239869186        5.98554877788146        0.28616494785640
C           -4.24348041980447        6.87535263765240       -0.95950373219608
C           -5.76384161193029        5.35944134889274        0.28378235505867
C           -4.23263175689324        6.84101261948594        1.55414829341292
C            2.83378981176989       -2.92843066557321       -0.14882960524232
C            4.19021535189483       -3.08130247319868       -0.26597782013374
C            4.73283759009088       -1.78587929649251       -0.58284296949923
C            3.63757982388787       -0.88016017832142       -0.59724736402679
C           -3.45521680818899       -1.23012132708895        0.46343934734297
C           -4.39811727357420       -2.27616188412971        0.65069798480425
C           -3.85376044616007       -3.44048272883189        0.00801672510115
C           -2.64598489470265       -3.07980300464587       -0.53967267581933
C            5.99556284872109       -1.33111850007917       -0.86572027046648
C            6.16340520848294        0.01599215629809       -1.24090716666122
C            5.05024995014184        0.90995874583843       -1.25964926646589
C            3.75976631228190        0.48586650979590       -0.81521487944298
C            7.43393241004763        0.49204501549996       -1.63403465354649
C            7.60203563670963        1.76818918431416       -2.08943042911266
C            6.49116725750846        2.61567028061416       -2.20519656447562
C            5.25265115531648        2.19454578530678       -1.80398323869609
C           -3.64619477953574        0.08251688342879        0.87026695917817
C           -4.81964253329943        0.30609729071508        1.65270021417467
C           -5.78001946270299       -0.73449264177822        1.85065187061032
C           -5.56698136132922       -2.02289784086682        1.32425723233925
C           -5.04441686086362        1.53706825250563        2.30265433914508
C           -6.17823754003993        1.76700547026885        3.03214339924194
C           -7.15267752999887        0.76687506947953        3.16578512814436
C           -6.94580277409673       -0.45829454106020        2.60042914092816
C           -4.55152568699391       -4.72964636864380        0.01527486934881
C           -1.91673458843901       -3.77904882810923       -1.59131303250829
C           -1.88532439580881       -5.17077272501966       -1.66617291479480
C           -1.30252479797917       -5.80515182736075       -2.74806308833957
C           -0.72188622568726       -5.06985153082425       -3.76607861883260
C           -0.74779955068959       -3.68566378646528       -3.70439702999614
C           -1.34857853374357       -3.04617709890177       -2.63907371971636
C           -4.07696710532860       -5.77272931200969        0.80743974105865
C           -4.76984245989183       -6.96698205239314        0.88379629735216
C           -5.94853396552626       -7.13210917685467        0.17492565027969
C           -6.43187995525971       -6.09669937879492       -0.60639697930653
C           -5.74182538312161       -4.89958819178983       -0.68271804327410
C            5.01362586204037       -4.25885170261700        0.00794697803763
C            4.78507194679059       -5.50310472255775       -0.57026818635523
C            5.60200009325482       -6.57854050777461       -0.27096477426619
C            6.66330001006500       -6.43091684383908        0.60487876812941
C            6.90548812143520       -5.19510826089736        1.18142545976821
C            6.09026679998434       -4.11993146017415        0.88491677569023
C            1.88925010660340       -3.97709921678421        0.26442962502682
C            1.36865092398156       -3.97044372071396        1.55796379258120
C            0.53215680192464       -4.98837840132513        1.97733842325781
C            0.22523045504167       -6.03387306116736        1.12116500261936
C            0.73352419581730       -6.04426304586890       -0.16689508239588
C            1.54953617390448       -5.01490585248068       -0.59903731382185
B            2.50612266143754        1.30234324739563       -0.43216720367148
B           -2.55474989869114        1.05844614196083        0.37193025470325
C            3.89779069607560        6.30729411630930        0.36692868205626
C            5.34011712779945        5.79335626492532        0.37753737372771
C            3.75504809985872        7.29549040541463       -0.79974638730458
C            3.64331023074577        7.03219055351813        1.69655474199573
H            0.07746415160220       -2.77174219339664       -0.43558953407869
H            4.29010265443111        3.60519848201465        0.07337486571328
H            1.21163871492678        6.57808309697660        0.30113802354145
H           -1.70703083148379        6.46251883190674        0.29294070047962
H           -4.53687810961731        3.24097358879193        0.26664271589283
H           -5.03939949421296        7.61719499795104       -0.97267230069199
H           -3.29157028015494        7.39884033326262       -0.98291068085594
H           -4.32067369359242        6.27015651766054       -1.86067199718900
H           -6.51322826195247        6.14885606818265        0.28738222195261
H           -5.92150337473909        4.74335933807362        1.16613604960280
H           -5.92104365195074        4.75328204176166       -0.60534936436130
H           -4.28811857224895        6.21056919500131        2.43930623022399
H           -3.28726973882801        7.37579150368309        1.57652797651869
H           -5.03690663008354        7.57245488638846        1.60037249892476
H            6.85071877302022       -1.99099488595030       -0.84455267917481
H            8.27247221090138       -0.18889552412963       -1.58716633548580
H            8.57824522827676        2.11949481378813       -2.39018129273802
H            6.61905040443689        3.60200444091801       -2.62872629202770
H            4.39483482572065        2.83266200813908       -1.94179064484345
H           -6.31014554485986       -2.79397675032551        1.46936058345283
H           -4.28044370056504        2.29497706958874        2.24135616394226
H           -6.32519323704817        2.71931534437692        3.52194847601958
H           -8.04925576656640        0.96472785928818        3.73529193326650
H           -7.66917704598105       -1.25165489833457        2.72994591700853
H           -2.32626023743858       -5.75854615551573       -0.87858486121195
H           -1.30585834342958       -6.88493173148512       -2.79598523470801
H           -0.26446084313641       -5.56887371322804       -4.60876318819260
H           -0.31064230558420       -3.09969195863406       -4.49995035301627
H           -1.39607151771409       -1.96739282511107       -2.62902587209764
H           -3.16813462991768       -5.63301311027856        1.37741464659159
H           -4.39270078784071       -7.76811731588397        1.50329620472583
H           -6.49252412238744       -8.06352666138611        0.23773076884252
H           -7.35438818688198       -6.22052717382799       -1.15532499298955
H           -6.12246206575637       -4.09006621159311       -1.28907097048241
H            3.97538923730687       -5.63018495152412       -1.26976942143107
H            5.41106671285614       -7.53802291532627       -0.72986019537911
H            7.29952092582703       -7.27292248557786        0.83579079537005
H            7.73160546006155       -5.06834543903037        1.86629704991798
H            6.27317732627648       -3.16151215709435        1.34934438731140
H            1.62270081665529       -3.16217311494002        2.22807001893539
H            0.13139562434058       -4.97339102126369        2.97954653361373
H           -0.41339922731892       -6.83857048615983        1.45660638970239
H            0.49170418733354       -6.85283425042376       -0.83888223944557
H            1.89880667195733       -4.99459915819913       -1.61919421460297
H            6.02138915566649        6.63248657272687        0.50647873297105
H            5.50371022749764        5.09988166566590        1.19920247115995
H            5.58986653050570        5.29922612533257       -0.55839576574030
H            4.47943572489636        8.10147812084926       -0.69991290780457
H            2.76170057910034        7.73491693267197       -0.83077374187082
H            3.93164442420930        6.78754753586357       -1.74572682734080
H            3.70157019001124        6.32846375778942        2.52441097312719
H            4.38964539015407        7.80889762902601        1.85043664640509
H            2.66191145618074        7.49816926825065        1.71532070116707
