132
energy: -196.933822011877 gnorm: 0.004568793724 xtb: 6.7.1 (edcfbbe)
C           -1.25540381104764        0.34352830982284       -0.03446616673005
C           -1.17705428929323       -1.05177583820143       -0.22516112053332
C            0.05051150357264       -1.69654746584510       -0.34281838846667
C            1.23922774985681       -0.97247717791951       -0.32984231630755
C            1.22977435607791        0.44364729706665       -0.30024413747306
C           -0.03568381374619        1.03701119227470       -0.13474940144489
N           -0.08876259564246        2.39042241842294       -0.03712898928833
N           -2.37714638315390       -1.74016007394801       -0.21145498512629
N            2.47996721529356       -1.58510113351306       -0.33289825166520
C            0.99122043064930        3.22889368908476       -0.03752943301574
C            0.55118990558870        4.56289941213805        0.09702554835477
C           -0.89898449335673        4.50260819297891        0.13908122574511
C           -1.23101509778453        3.13195351531999        0.09364647762743
C            2.31831295812364        2.82349908780101       -0.13551382581015
C            3.23891782812332        3.86679667144491        0.05908689120948
C            2.86441108035653        5.19696096154624        0.21705455383020
C            1.50834479408383        5.55153311618681        0.20155011131310
C           -1.93155961595943        5.41607911510521        0.20475989526381
C           -3.25743841642900        4.96116004318503        0.20808855780606
C           -3.52395901189806        3.59587167262997        0.22066557849969
C           -2.51808532736354        2.61653559585078        0.21344406997480
C           -4.37232778898936        6.00008626255802        0.22257154881236
C           -4.23969382312383        6.89899489354382       -1.01524526128421
C           -5.77214532515554        5.37828401604771        0.20345669405003
C           -4.24925752579039        6.84829583069549        1.49675009381211
C            2.82442231874166       -2.92240255424662       -0.13995669109581
C            4.18332096006641       -3.07497402000305       -0.22615337829366
C            4.73091202088457       -1.77952497077387       -0.53088396135740
C            3.63511766959721       -0.87543229539333       -0.56908744030287
C           -3.45732646011812       -1.22193851514532        0.45907815077619
C           -4.39222422410562       -2.27089248271062        0.66502372721778
C           -3.84746719409081       -3.43873369654579        0.03248369372259
C           -2.64784956255211       -3.07586471561739       -0.53353715626400
C            5.99814216110657       -1.32469964374906       -0.79469922407432
C            6.17150541308747        0.02158359917344       -1.16859965114424
C            5.05753608338591        0.91354796653384       -1.21084469103976
C            3.76051633038488        0.48939311831692       -0.79176330406296
C            7.44948739701961        0.49898450102930       -1.53464553041857
C            7.62568154084859        1.77623479409849       -1.98275661323297
C            6.51565049758854        2.62271198449793       -2.12198203752641
C            5.26962402710825        2.19854865191425       -1.75054376264597
C           -3.65153608958228        0.09425399384488        0.85319808409833
C           -4.82167436270289        0.31925810359078        1.63910204155100
C           -5.77614436100778       -0.72355813189905        1.85305076207091
C           -5.55878233460211       -2.01768615939684        1.34289985090324
C           -5.04854486286764        1.55486373238520        2.27950565669718
C           -6.17561940146997        1.78302268800906        3.01965050590565
C           -7.14471005911687        0.77955345550372        3.16793359114667
C           -6.93915236157271       -0.44720827580951        2.60609016948238
C           -4.53046547366415       -4.73428630934835        0.05995820695399
C           -1.93209209519902       -3.77051098101083       -1.59568766244471
C           -1.91226124967171       -5.16138054110664       -1.69094293196071
C           -1.33386118013304       -5.78473142667321       -2.78050750194559
C           -0.74166207992058       -5.04020117556916       -3.78572150262384
C           -0.76301497746270       -3.65755584369022       -3.70889971694734
C           -1.36535380752852       -3.02910367596105       -2.63852993512971
C           -4.00656800849736       -5.78408783664422        0.81143524196740
C           -4.68181234022737       -6.98719972352853        0.89518484955116
C           -5.88951121605338       -7.15488901251559        0.23796895582214
C           -6.42435286454360       -6.11019443598865       -0.49732313296492
C           -5.75305167000151       -4.90400465904058       -0.58068372623686
C            4.99511594964121       -4.25734343394087        0.05273973198199
C            4.73739380553462       -5.50468024289364       -0.50907837895146
C            5.54303811072539       -6.58894696013927       -0.21465689479511
C            6.62399554582693       -6.44753254879005        0.63832697956538
C            6.89170026685363       -5.21060268291184        1.20099210624651
C            6.08573363283265       -4.12653893277875        0.91294783395892
C            1.87888189712149       -3.98886016711674        0.22014740720725
C            1.38999348542714       -4.08237668433493        1.52154077560140
C            0.56694389779265       -5.13262702343919        1.88263929899900
C            0.25205643524113       -6.11931859223357        0.96213311717148
C            0.74186180984542       -6.03676259334505       -0.32958856270782
C            1.53310277069244       -4.96727337721181       -0.70698600296979
B            2.50130163079514        1.30645526909566       -0.43411599488335
B           -2.56276438727893        1.06853613408516        0.34380170844784
C            3.89386162787331        6.30595857005709        0.40095507123356
C            5.33589640961819        5.78988316761162        0.42305839733140
C            3.76771503274888        7.30261043482514       -0.76064229821043
C            3.62955769472985        7.02294411423773        1.73305436198738
H            0.07301945151789       -2.76799502718499       -0.42823034447189
H            4.28204358217732        3.60524281799382        0.10824171351544
H            1.20494525660640        6.58288470874160        0.29911218446733
H           -1.70987995721693        6.47191015112501        0.23728965925777
H           -4.54615095529333        3.25602462661966        0.21947337571624
H           -5.04003007956826        7.63607548784202       -1.03018262887499
H           -3.29142200970908        7.42907396860742       -1.02524027567246
H           -4.30492421608404        6.30100906469910       -1.92202545739658
H           -6.51719698747686        6.17186866710570        0.20463999975892
H           -5.94191393521060        4.75779661689597        1.08024485620950
H           -5.92349360528742        4.77862704725822       -0.69120082288140
H           -4.32020027878277        6.21393360828768        2.37807104134722
H           -3.30075378529233        7.37715854815600        1.53406130505807
H           -5.04970208148632        7.58425087127095        1.53574955072896
H            6.85053283740389       -1.98722063160006       -0.75943353812458
H            8.28685976003234       -0.18182036153277       -1.46988383818798
H            8.60743492779727        2.13078245482657       -2.26103416512253
H            6.65317033800002        3.61034405410997       -2.53850767155190
H            4.41112827724235        2.83197143482068       -1.90641942439987
H           -6.29211285480509       -2.79498594879806        1.50331334402548
H           -4.28933611098672        2.31607411555303        2.20191232028036
H           -6.32251747107539        2.73703676160582        3.50592245733715
H           -8.03603271795980        0.97676294092508        3.74520710496725
H           -7.65977472379116       -1.24187834430877        2.74117059940079
H           -2.35358784730877       -5.76023891003289       -0.91218800064372
H           -1.34636880049805       -6.86324602319323       -2.84508992347998
H           -0.27561932040229       -5.53140661795871       -4.62585104187033
H           -0.32105042614089       -3.06304114834650       -4.49545486934432
H           -1.41164057534156       -1.95046951334375       -2.61866037750492
H           -3.07308501054815       -5.64180167089107        1.33987307697111
H           -4.26980451645352       -7.79691843350198        1.48045398173088
H           -6.41485935369705       -8.09592979006116        0.30459926594332
H           -7.37016724448245       -6.23509534328641       -1.00425903606226
H           -6.16672581909281       -4.08554297087890       -1.15183837641505
H            3.91138990211581       -5.62514555861117       -1.19115152724559
H            5.32798919932969       -7.54996058025312       -0.65953033408127
H            7.25526524211094       -7.29457364106393        0.86254654301748
H            7.73236480032852       -5.09299530329976        1.86981807448120
H            6.28595760647368       -3.16827313812278        1.37000634446094
H            1.65986625309758       -3.32752244990077        2.24588175920959
H            0.18550915713750       -5.19159201198516        2.88892593251389
H           -0.36990200998821       -6.95349075829048        1.25095472106754
H            0.51213885246981       -6.80946045989298       -1.04645955341442
H            1.86817011001377       -4.87578431282023       -1.73103614695521
H            6.01552031531161        6.63007724303574        0.55266887145899
H            5.49478260078712        5.10054704491139        1.24896452241029
H            5.59230424156553        5.29174347965974       -0.50860483166190
H            4.50709248625633        8.09425432159484       -0.65689605635127
H            2.78277525139597        7.76038023611646       -0.78914936232055
H            3.93549577580981        6.79643930304939       -1.70935779729659
H            3.69007306503838        6.31516481351459        2.55757718429286
H            4.37142753418392        7.80294677341092        1.89294863068617
H            2.64547156764747        7.48288822580807        1.75154541820676
