132
energy: -196.940600228628 gnorm: 0.006133775721 xtb: 6.7.1 (edcfbbe)
C           -1.26017641665448        0.35495735184856        0.14316152943885
C           -1.18924317563189       -1.04151689822838       -0.05572574612102
C            0.03551313045312       -1.68793278202462       -0.18161345393178
C            1.22260835697516       -0.96210640050341       -0.19919789896777
C            1.21628977561711        0.45018692949259       -0.19115986966350
C           -0.04086209677096        1.04575893865388        0.02076683156724
N           -0.07876711439851        2.39865253209096        0.12219471925523
N           -2.39122504673363       -1.72541596651534       -0.06996100001262
N            2.45968351155361       -1.57418081433649       -0.25885284263724
C            1.00620451242259        3.22801525546115        0.06576572680800
C            0.58304041054158        4.56479589222258        0.22225147894315
C           -0.86361531992914        4.51491343625961        0.33599364551439
C           -1.20918478038985        3.14763012307324        0.29732522986468
C            2.32267109652276        2.81891606926609       -0.12665922846025
C            3.25942329866411        3.85816506481121       -0.01084396644967
C            2.90154794481876        5.18969265187071        0.17451161489586
C            1.54957608113421        5.54899399474249        0.25801052260748
C           -1.88392569982109        5.43666566831016        0.45018437103560
C           -3.21185189211123        4.99171402761278        0.49556998997423
C           -3.49214618179837        3.62906422538561        0.48778399195586
C           -2.49719063419205        2.63943185931837        0.43896488672590
C           -4.31435825752533        6.04083908978022        0.57795622321499
C           -4.22129495665183        6.96936506637760       -0.64126932205545
C           -5.71943293058186        5.43236944572322        0.60125671900157
C           -4.12849650321646        6.85366070941461        1.86771527030751
C            2.80978107464456       -2.91322981862941       -0.07448616672750
C            4.11515398464584       -3.10060040345779       -0.44283569388913
C            4.62964810171476       -1.82510829889624       -0.85538947835272
C            3.56676744000385       -0.89248080046507       -0.70101479959968
C           -3.51068662263319       -1.18921251538777        0.52346805400599
C           -4.50526577912474       -2.20381529558655        0.59807107800360
C           -3.94966979249661       -3.36333273185268       -0.04479282324136
C           -2.67711835403912       -3.03583204121120       -0.44362882052866
C            5.85373845865789       -1.39390853415647       -1.30101025093358
C            5.99687849712697       -0.04464849944474       -1.67989081221906
C            4.90868500026502        0.87174270449579       -1.54544107748595
C            3.67943602225252        0.47011369231463       -0.94014331206943
C            7.21517973410006        0.41384177321752       -2.22838555207324
C            7.34890041240324        1.69273098541907       -2.68682533699302
C            6.25139082524281        2.56508525593799       -2.64375538390099
C            5.06766352899530        2.16247898499225       -2.08954146045252
C           -3.68886109558890        0.11815000287614        0.95402030557318
C           -4.90219114002060        0.35457029230918        1.66858737605988
C           -5.92253583047165       -0.64333139379263        1.73265885681423
C           -5.72415791746294       -1.91448859098386        1.15877141851306
C           -5.11050019135400        1.55242619083619        2.38200856178108
C           -6.28243905208740        1.79811987399934        3.04305062531077
C           -7.31729152832251        0.85121575525854        3.03038636143861
C           -7.13123385070755       -0.34590078454618        2.40108337107826
C           -4.65722304961861       -4.61887131452568       -0.27240081266782
C           -1.79576296589363       -3.88441488176395       -1.23967117304527
C           -1.64164429761389       -5.23092239272486       -0.91483002743377
C           -0.87898936487872       -6.05939036322525       -1.71516042471152
C           -0.24788857352348       -5.55555419931564       -2.84020559019843
C           -0.39133954147766       -4.21714731423536       -3.16858846404080
C           -1.16732222217491       -3.38775317854388       -2.38237023281927
C           -5.30005276363352       -5.25827589672009        0.78580351532966
C           -5.98009330987742       -6.44407725022060        0.58020008703580
C           -6.03898271734104       -7.00148630894817       -0.68774361092395
C           -5.41098831248666       -6.36655865741812       -1.74952166667428
C           -4.72459433116174       -5.18551080941986       -1.54701089910174
C            4.91495221297971       -4.33034794965707       -0.37492218037050
C            4.86682229313945       -5.27033837684662       -1.39968841410769
C            5.64699565144836       -6.41038857023074       -1.33997420546432
C            6.48887020775777       -6.61956955560643       -0.25999235946047
C            6.54806937109977       -5.68440975594106        0.75998206246483
C            5.76669391890220       -4.54482672961540        0.70335115613395
C            1.97084354545534       -3.87880310494926        0.63105918570751
C            1.35689270343963       -3.51007573370812        1.83034793176796
C            0.60947390603242       -4.42386556614879        2.54363310835178
C            0.47686357950732       -5.72579132309789        2.08400062783179
C            1.10280213624150       -6.10510682523697        0.91122401174512
C            1.84233524688982       -5.18983620652412        0.18392542393438
B            2.47895285468896        1.30174958391542       -0.43312855596230
B           -2.56153505776857        1.08750954915246        0.52669720882873
C            3.94364365247268        6.29691982391473        0.27763059126168
C            5.38143813275366        5.77570863593801        0.19541364627650
C            3.73295833781959        7.28906901145242       -0.87520118036620
C            3.77828597035093        7.01876585975678        1.62267139450122
H            0.06683247795424       -2.75954237808947       -0.25941380165164
H            4.30192309708908        3.59202162280924       -0.05139953245858
H            1.25926909540709        6.58225395012601        0.37113654691987
H           -1.65329256759658        6.49023522070437        0.48539381136233
H           -4.51733536087563        3.30038356880322        0.50339537498345
H           -5.01766839631946        7.71034299981699       -0.61039997344072
H           -3.27116997751264        7.49548028071802       -0.67195522364572
H           -4.32136780077354        6.39381519949600       -1.55943908477894
H           -6.45716641053404        6.23115948278899        0.65310666649638
H           -5.85787669845760        4.79117411946975        1.46857092695927
H           -5.91291581591192        4.85623079499963       -0.30073823867097
H           -4.16144342791969        6.19526205244926        2.73338042629467
H           -3.17625584445030        7.37706851392592        1.87541859350911
H           -4.92193700032515        7.59170404241594        1.96466501637562
H            6.68851112707328       -2.07441785422485       -1.38949461907329
H            8.03858166117577       -0.28339778716135       -2.29672201835683
H            8.28423385862763        2.02996485915263       -3.10861014449506
H            6.34618662745517        3.55598925441172       -3.06431547311511
H            4.21385890630481        2.82080589260657       -2.09736979437136
H           -6.51711703213833       -2.64758758672303        1.18801145606747
H           -4.30260520261502        2.26489635225472        2.42941026952703
H           -6.41567854792312        2.72047126224178        3.59047577576522
H           -8.24487663598659        1.06541682617842        3.54121987354548
H           -7.90438455674856       -1.10164466781704        2.41933262247723
H           -2.11960093775479       -5.62138410057860       -0.02895817627400
H           -0.77740643965246       -7.10377133199489       -1.46065184679705
H            0.35105051088544       -6.20264816787112       -3.46392185384022
H            0.09584172633198       -3.81924857934897       -4.04696327207334
H           -1.29281559633729       -2.34857223595269       -2.65179077173010
H           -5.23938274260035       -4.82940404481543        1.77843055373726
H           -6.46261355352892       -6.93843186908496        1.41409432416259
H           -6.57273602053802       -7.92680958342611       -0.84742620763969
H           -5.46290083579539       -6.79421673874114       -2.74272869110086
H           -4.23979082358188       -4.68889295676991       -2.37605224129871
H            4.22233759787588       -5.09642737001816       -2.25064074891294
H            5.60110688780182       -7.13785357698164       -2.13874616274176
H            7.10144277213262       -7.50825947704332       -0.21645589455436
H            7.20628359729713       -5.84329439543793        1.60249579045187
H            5.80941787327558       -3.81216671450266        1.49740368158584
H            1.47428662888137       -2.50025142106091        2.19862920359275
H            0.13488204970448       -4.12314251361773        3.46593550907216
H           -0.10805469902424       -6.44089459688936        2.64263764279234
H            1.01593262210171       -7.12182766177860        0.55788792311667
H            2.31207165011236       -5.48832868294369       -0.73885219238596
H            6.07246615483256        6.61271268891125        0.27304916111838
H            5.59660864930967        5.08702568105506        1.00888453109786
H            5.56647146002082        5.27491625258493       -0.75179775538788
H            4.48997655730407        8.06951828657241       -0.84131437062004
H            2.75676183330004        7.76190224503079       -0.82061634544871
H            3.80975069285559        6.77541533860860       -1.83092289075784
H            3.88926207224783        6.31288878255178        2.44344806659045
H            4.53521311840458        7.79323432526641        1.72904241980988
H            2.80139536761715        7.48680492403358        1.70731654088413
