132
energy: -196.944662546196 gnorm: 0.002191149619 xtb: 6.7.1 (edcfbbe)
C           -1.24648807519265        0.34937176887684        0.24922309575883
C           -1.17358264801535       -1.04984135901383        0.06675653437490
C            0.05408673542999       -1.69638874806320       -0.04719108803804
C            1.23865682168573       -0.96796624603989       -0.09864817974653
C            1.22508207354702        0.44416954990608       -0.11143990965803
C           -0.02876526326428        1.04086342965182        0.11385723637386
N           -0.06733647330131        2.39522239710995        0.19882091247541
N           -2.37723649441619       -1.73096398478991        0.03526842847900
N            2.48057153679048       -1.57273649112403       -0.18668924981408
C            1.01601379289446        3.22517187257846        0.11744784972249
C            0.59590673530167        4.56347063704406        0.26834752596337
C           -0.84967395972095        4.51451764313383        0.40074768191908
C           -1.19551132398529        3.14668283405064        0.37603965702530
C            2.32715987830801        2.81525114146186       -0.10418703667069
C            3.26703512103723        3.85452998203596       -0.02400213933390
C            2.91385126989398        5.18718219568530        0.16117181514064
C            1.56393289264950        5.54727518915554        0.27458278537330
C           -1.86992527014124        5.43676818087046        0.51436295170970
C           -3.19799413418583        4.99187788525571        0.56512065300287
C           -3.47824660808348        3.62937610341661        0.56272757270270
C           -2.48335843922868        2.63957219064471        0.52069686472786
C           -4.30222711578593        6.03951251024096        0.64417776931463
C           -4.20875822184529        6.96644496823415       -0.57624478648289
C           -5.70679852036843        5.42938963655773        0.66553321947464
C           -4.12050030300229        6.85436641087507        1.93308373334768
C            2.85344148264564       -2.89926312758110        0.01186875158923
C            4.14111296629506       -3.09029463523463       -0.42647708169610
C            4.61576040113213       -1.82279335047435       -0.91061097814031
C            3.55860695505429       -0.89336768304591       -0.70608963508882
C           -3.51967402251083       -1.17737838319164        0.56611809093497
C           -4.53869604064006       -2.17045025265862        0.56896362913043
C           -3.96701402746592       -3.33890852938984       -0.04313167126917
C           -2.66511128698570       -3.03519140947010       -0.35782339202916
C            5.81038276540295       -1.38340682391372       -1.42476507675910
C            5.92028291293281       -0.04024685641421       -1.83471660308294
C            4.83739043247782        0.87166485109261       -1.64569601142239
C            3.65048667904689        0.46676507015584       -0.96405301409910
C            7.09862131739905        0.41676548603106       -2.46568467716392
C            7.19532050544606        1.69018567263246       -2.94825721565793
C            6.10021969986397        2.56008736316926       -2.84093800192165
C            4.95655336156628        2.15918520417095       -2.20690928448216
C           -3.69954908969991        0.12983000064792        0.99629293668569
C           -4.94659784586215        0.38383617389843        1.64339266178994
C           -5.99407478240755       -0.58650236656624        1.62067122042889
C           -5.78757914495266       -1.85424916263489        1.04245500344092
C           -5.16661420573319        1.57053351460072        2.37175498105093
C           -6.37359003727522        1.83744304024875        2.95721722477534
C           -7.43273928843803        0.92428712532529        2.84884750899977
C           -7.23777323678416       -0.26590228445863        2.20896341309723
C           -4.68510825535050       -4.57745864991907       -0.32401776509162
C           -1.75286176269316       -3.90605452167618       -1.09498781553260
C           -1.60972704466292       -5.24037855799454       -0.72136299216167
C           -0.82261671038647       -6.09363507905070       -1.47030389342427
C           -0.15496578062078       -5.62543360570212       -2.58939446454001
C           -0.28700248223677       -4.29860173417859       -2.96513998996373
C           -1.08871137116183       -3.44528507120374       -2.23212750965292
C           -5.47126419834219       -5.16954681282385        0.66180310693504
C           -6.16522508406298       -6.33641582675540        0.40000411192654
C           -6.08750570094130       -6.92882920229393       -0.84868583269074
C           -5.31228617947872       -6.34416771488443       -1.83760614448516
C           -4.61908269075830       -5.17793781668472       -1.58075883471743
C            4.93338240804035       -4.31521329502691       -0.37305557245208
C            5.63791373831018       -4.73644853283875       -1.49936027836000
C            6.39847099490642       -5.89010114506599       -1.46091883628751
C            6.47040562800514       -6.63733271366201       -0.29709326624813
C            5.77837631053362       -6.22277966503080        0.82912358349444
C            5.01723721211750       -5.07029440595387        0.79516949204944
C            2.04128891140662       -3.88815889024207        0.71448036699055
C            1.42407089238493       -3.56496235699445        1.92412200523018
C            0.72769602987006       -4.52505658620552        2.63038792233159
C            0.65331183322506       -5.82446881099127        2.15381994320678
C            1.27291167442059       -6.15483286771685        0.96101813725138
C            1.95594845044260       -5.19424529819647        0.23919220346680
B            2.47475852054610        1.29755832810047       -0.40378353626189
B           -2.55047773541687        1.08834052945074        0.61143929513293
C            3.95991851740730        6.29321232041764        0.23125184986556
C            5.39418769971410        5.76853759663912        0.11652963201637
C            3.72345942153746        7.27954971161006       -0.92156827239965
C            3.82954040268153        7.02263929201879        1.57601281680049
H            0.08771919779556       -2.76939921985486       -0.10314745809684
H            4.30762730424859        3.58699705234068       -0.09487079061651
H            1.27680512482313        6.58175107032173        0.38520268109569
H           -1.63964486107830        6.49080342557961        0.54294615063257
H           -4.50343817202998        3.30114427521710        0.57684082182612
H           -5.00521447471748        7.70724717919908       -0.54676596051831
H           -3.25879255209384        7.49276000988946       -0.60723238683639
H           -4.30823653417388        6.38936672111886       -1.49339219482335
H           -6.44510457774620        6.22760384366451        0.71522345397683
H           -5.84652404999800        4.78907363194161        1.53320122473361
H           -5.89821497219673        4.85184957812707       -0.23586048953314
H           -4.16768753582425        6.19893933508749        2.80053470314235
H           -3.16341353959264        7.36865711486091        1.94790489178437
H           -4.90809098983605        7.60000098981087        2.02062521334107
H            6.65188559091994       -2.05057260887010       -1.54067499469839
H            7.92035873828068       -0.27685714700761       -2.57845686011886
H            8.09916114236645        2.02505003243043       -3.43578952359773
H            6.16399797484406        3.54785768301971       -3.27477511370686
H            4.10320393293703        2.81675436166786       -2.16126433880338
H           -6.60214167762741       -2.56247307943202        1.00047633062070
H           -4.34147971409155        2.25386366861809        2.49362320306281
H           -6.51650769493033        2.75003882594656        3.51836970124626
H           -8.38780445747789        1.15615682060491        3.29711533048437
H           -8.03143506624687       -0.99844960579183        2.15887662488753
H           -2.11854107128477       -5.60130969335282        0.15982524153081
H           -0.73190899108729       -7.12935615626463       -1.18001997881255
H            0.46453966299035       -6.29238704502316       -3.17059358948714
H            0.22872116492233       -3.92941647428152       -3.83958443175506
H           -1.20712919669734       -2.41563590869776       -2.53887626200244
H           -5.51912426559948       -4.71983291713368        1.64309906093994
H           -6.76854840643841       -6.78684780009994        1.17547784825646
H           -6.62950886116141       -7.84055634375364       -1.05181696530302
H           -5.25252102351172       -6.79840838165114       -2.81604724015888
H           -4.02706966186421       -4.71751619225972       -2.35857328940701
H            5.56735251122506       -4.16272769708320       -2.41177202379588
H            6.93530995065809       -6.20980584173554       -2.34241031859911
H            7.06450746179914       -7.53893029839400       -0.26722848764365
H            5.83653086607894       -6.79964744590388        1.74098298005347
H            4.48895114629341       -4.74280808199797        1.67812514301295
H            1.50061747329310       -2.55770427086873        2.30860203177250
H            0.25057996568911       -4.26237767312906        3.56329025464355
H            0.11712334482678       -6.57587475700017        2.71404034193872
H            1.22838972132400       -7.16828158542597        0.59149005319190
H            2.42654512619109       -5.45086139347133       -0.69770451609122
H            6.08917009894374        6.60419871458831        0.17575400280391
H            5.62716978092864        5.08146999172525        0.92683772073360
H            5.55619560231922        5.26463267171383       -0.83346186100356
H            4.47238658693194        8.06864741906331       -0.89960786421554
H            2.74232178578678        7.74194689863978       -0.85627345638209
H            3.79366873452117        6.76344927686286       -1.87699809978850
H            3.96543152711382        6.32188668494533        2.39747076043529
H            4.58688463240953        7.79982663999728        1.65691196353870
H            2.85392206993926        7.48841674964296        1.68490462282324
