132
energy: -196.933337083698 gnorm: 0.005122843081 xtb: 6.7.1 (edcfbbe)
C           -1.26484944274772        0.35235085303378       -0.06519128300724
C           -1.18484029094696       -1.04351562465022       -0.23774595860443
C            0.04377841620150       -1.69129973386884       -0.33535019085907
C            1.23292373908769       -0.96732507555908       -0.33162856704271
C            1.22052569295194        0.44793587748270       -0.31080866018724
C           -0.04459587429375        1.04537857736929       -0.15618347770836
N           -0.09710429425818        2.39912099479923       -0.05946081308720
N           -2.38162293114273       -1.73706718307919       -0.22008093282856
N            2.47228870057993       -1.58277497690897       -0.33150968515543
C            0.98299087923001        3.23502218541305       -0.04371112590353
C            0.54553352562598        4.56894765753084        0.09560927375358
C           -0.90557305665796        4.51146149669142        0.12430215170650
C           -1.23797909476435        3.14157409189728        0.06950170905709
C            2.30968904829790        2.82712382873749       -0.13686203437747
C            3.23232318434735        3.86449242250911        0.06802175745927
C            2.85883129282480        5.19421340055568        0.23517338900793
C            1.50494749429862        5.55395142267116        0.21397997328866
C           -1.93867033808785        5.42541737198040        0.18029595534937
C           -3.26396620891828        4.97025711222844        0.16973986505624
C           -3.53261627599935        3.60491200281673        0.17758305825569
C           -2.52682801215858        2.62685956208404        0.17485842623319
C           -4.37963408590729        6.00904965820927        0.17509763501561
C           -4.23343124298277        6.91089479763855       -1.05920325845979
C           -5.77741740351519        5.38470552316597        0.13911186702194
C           -4.26878663516754        6.85213309924037        1.45351464735023
C            2.81898705009080       -2.91705449457438       -0.12816805542079
C            4.17993936121943       -3.06407609417456       -0.18904566121598
C            4.72959342095273       -1.76850804089583       -0.49182129310915
C            3.62975852094616       -0.87000064979832       -0.55355183173372
C           -3.46593576548534       -1.21024647552309        0.43937912851664
C           -4.40032865218313       -2.25791619287587        0.65735667118542
C           -3.85016569791859       -3.43368587577290        0.03854021712936
C           -2.65049611049353       -3.07461728116890       -0.53250252900810
C            5.99974357310476       -1.30817720208999       -0.73178392908441
C            6.17473729151303        0.03719027956149       -1.10967796479660
C            5.05718807040548        0.92199004347815       -1.18080807065095
C            3.75497981596663        0.49427531424209       -0.77917106213512
C            7.45713561258019        0.52467900493108       -1.44797357690841
C            7.63217568115435        1.80066291217041       -1.90072995644274
C            6.51852167952251        2.63514909420602       -2.07776648221878
C            5.26788763551724        2.20342128794661       -1.73030604784653
C           -3.65718463789939        0.10852823865126        0.82485622611653
C           -4.82017022583535        0.34058992599528        1.61921752109198
C           -5.77499649535564       -0.69881922630003        1.84477239291350
C           -5.56265397977399       -1.99644476474500        1.33963681040262
C           -5.03004009052436        1.57809565846951        2.26148012823638
C           -6.14604163088535        1.81368339993437        3.01555963805312
C           -7.12095472154504        0.81697245260113        3.17086693399772
C           -6.92955588702411       -0.41170702568260        2.60794908855516
C           -4.51971345579640       -4.73396040677218        0.08764500776534
C           -1.93871207417254       -3.76691058542004       -1.60140417467821
C           -1.93183413418144       -5.15643281439937       -1.71295209829048
C           -1.36671877070212       -5.77465915193956       -2.81319374054112
C           -0.77027247752116       -5.02697754145897       -3.81244462108004
C           -0.77549251353410       -3.64479170351317       -3.71827105596228
C           -1.36526221651438       -3.02096566677490       -2.63786333593127
C           -3.94735442891567       -5.78954246766813        0.79681798617967
C           -4.59797870252063       -7.00592179409096        0.88731713520733
C           -5.83249296164040       -7.17946005732727        0.28196003358338
C           -6.41785975482583       -6.12893311934267       -0.40480660868797
C           -5.76875218364413       -4.91085462218922       -0.49861491003557
C            4.98029918395258       -4.25452376386860        0.09041393202961
C            4.69628914852727       -5.49972468797867       -0.46249259507778
C            5.48816383123265       -6.59522690946693       -0.17117490172545
C            6.57993396170056       -6.46623151141226        0.66902308141920
C            6.87271334471767       -5.23222760002946        1.22600335962924
C            6.08020677812055       -4.13740080360239        0.94115162538208
C            1.88051848249999       -4.00531415440420        0.19571495670653
C            1.43280816420330       -4.18298943599242        1.50299706709594
C            0.63106260529051       -5.26445002632765        1.82348871234484
C            0.29978882519605       -6.19570547760256        0.85305798126257
C            0.74830793989157       -6.02953896562032       -0.44802081473589
C            1.51565991505264       -4.92920076655700       -0.78229867072894
B            2.49268513805929        1.31150344834541       -0.43695514759010
B           -2.57256214092637        1.08014447037870        0.30494859585601
C            3.89112372302736        6.29856121526185        0.43061004145573
C            5.32957761779209        5.77422622747033        0.45921576986285
C            3.77250068245144        7.29727874072814       -0.72968252834413
C            3.62160678062778        7.01115815941475        1.76345719510336
H            0.06394421213430       -2.76484868477141       -0.39500063922520
H            4.27403037422271        3.59936137374979        0.11661547009771
H            1.20686979175857        6.58604920946116        0.31629421013740
H           -1.71994710104023        6.48176307170147        0.21503275984877
H           -4.55396652503567        3.26343879888554        0.16885410905259
H           -5.03491889927431        7.64655032828658       -1.08401730601315
H           -3.28604008822350        7.44287747245796       -1.05586708991520
H           -4.28520123328096        6.31409307320986       -1.96775879115266
H           -6.52591877487186        6.17467176786945        0.14215117247208
H           -5.95162250508958        4.75524322806849        1.00869279513122
H           -5.91857195502151        4.79262345213747       -0.76220553741183
H           -4.35906917795629        6.21484270521033        2.33104753995751
H           -3.31544026783687        7.37061759513654        1.50703970208947
H           -5.06213236824946        7.59621455087030        1.48389910357389
H            6.85668359844462       -1.96356156576384       -0.67587083084358
H            8.30055893700921       -0.14615792819679       -1.35799886237190
H            8.61811742320719        2.16274543911314       -2.15367087622525
H            6.65609179283570        3.61895912140613       -2.50395660801838
H            4.40787874324467        2.82782342929870       -1.91291186767358
H           -6.29919113660317       -2.76821711652457        1.51169420663567
H           -4.26560826553795        2.33312199602301        2.17519810941863
H           -6.27883017095780        2.76652913021534        3.50769886076751
H           -8.00639806105042        1.02130004150179        3.75536176215148
H           -7.65577140903828       -1.19957641851451        2.75311691167602
H           -2.37790327610860       -5.75820876940440       -0.94016920247714
H           -1.39357833160899       -6.85243842545446       -2.88733741061061
H           -0.31706560224057       -5.51409793368432       -4.66386930851157
H           -0.33104486245476       -3.04825815636106       -4.50164013496437
H           -1.39997532857092       -1.94253455717036       -2.60830834568229
H           -2.99573374722767       -5.64138670112360        1.29030523256789
H           -4.14308823234621       -7.81990064156631        1.43445054806480
H           -6.34049847095416       -8.13023127291192        0.35253145822599
H           -7.38518200745425       -6.25916451968180       -0.86904020228203
H           -6.22086999812026       -4.09021234966363       -1.03755233789228
H            3.85904559590783       -5.60976247876996       -1.13176811177583
H            5.25418751550163       -7.55511549165654       -0.60875470325608
H            7.19976251294880       -7.32304136311327        0.88913020391034
H            7.72078755437514       -5.12357385202932        1.88644280557342
H            6.29712032993948       -3.18078324078560        1.39401045339522
H            1.71718548460023       -3.47013834705895        2.26497568728188
H            0.27882545773851       -5.39036417190335        2.83933988939290
H           -0.30636079167324       -7.05378527893388        1.10695368435503
H            0.50554130002681       -6.76154155891420       -1.20379654864814
H            1.82736707432228       -4.77348714751507       -1.80753093735949
H            6.01537505707512        6.60839799634010        0.59538955620267
H            5.47770287834101        5.08067577485953        1.28392996121318
H            5.58735187915805        5.27666945074661       -0.47258022790136
H            4.51936899765874        8.08201644972412       -0.62951447654538
H            2.79171213669908        7.76432390478495       -0.75405111827160
H            3.93071916032344        6.78876297446150       -1.67848438398898
H            3.68926890640007        6.30294799435767        2.58671877817787
H            4.35540077640453        7.79825984524969        1.92404349895824
H            2.63285018616365        7.46107593790243        1.78342809403962
