132
energy: -196.934544588810 gnorm: 0.003775768283 xtb: 6.7.1 (edcfbbe)
C           -1.24562144808261        0.32858063890931       -0.00425564697322
C           -1.17051784655394       -1.06415697871099       -0.21034111155644
C            0.05666608800610       -1.70802967701456       -0.34103855257429
C            1.24408097209779       -0.98251600321000       -0.32892385927763
C            1.23476544153118        0.43277339674498       -0.29168279164073
C           -0.02738153745585        1.02412735118139       -0.10473494906150
N           -0.07874392626571        2.37617312961781        0.01011793220478
N           -2.36919928789519       -1.75395878965519       -0.19985973598789
N            2.48469553988603       -1.59382824324341       -0.34917200349782
C            1.00065105824266        3.21494985870965       -0.00232894770085
C            0.56223078847366        4.54742378193803        0.15159145033866
C           -0.88688175810856        4.48666523233740        0.21867145893219
C           -1.21835392248148        3.11684120541582        0.16307843831237
C            2.32509289951873        2.81268717816170       -0.14260822299607
C            3.24943607165827        3.85718960837584        0.02360826035935
C            2.87607013625417        5.18552425038820        0.20056217523776
C            1.51982570610850        5.53716324379194        0.23210108131403
C           -1.92057711262675        5.39833305412447        0.30105471746995
C           -3.24577733808318        4.94184229468136        0.30780530163017
C           -3.51163578112374        3.57649035424153        0.30291841883714
C           -2.50463894487352        2.59977486697145        0.27998698569316
C           -4.36423609789986        5.97696553354505        0.33411211626521
C           -4.25428350849726        6.86244616470969       -0.91525140122862
C           -5.76122257599653        5.34859755697162        0.34507585363563
C           -4.22448417981355        6.83709752430061        1.59830200518844
C            2.83634822472678       -2.92824835327082       -0.14652823605989
C            4.19085991164118       -3.07987526014768       -0.28417194645621
C            4.72674117080063       -1.78679793561245       -0.62006103435354
C            3.62909769149406       -0.88431423794981       -0.62846231484366
C           -3.45613576810775       -1.23395151716527        0.45780909928188
C           -4.40844112042921       -2.27328939224525        0.63053040456787
C           -3.86271373077743       -3.43749048160267       -0.00849503594101
C           -2.64535487121075       -3.08274135648913       -0.53759182557245
C            5.98646559362611       -1.32957717562124       -0.91496552862151
C            6.14585111392807        0.01647701591909       -1.29935399620809
C            5.02859787798002        0.90488349634193       -1.31492907401834
C            3.74594832952237        0.48011549424162       -0.85551348927230
C            7.41067131748293        0.49993109899679       -1.70102445120081
C            7.56678268231486        1.77538592225682       -2.16282187623124
C            6.44923363360824        2.61568428155119       -2.27824565913907
C            5.21715128113114        2.18809545739121       -1.86655414309280
C           -3.64196552645635        0.07592547558858        0.87367245955474
C           -4.81482695636379        0.30088871242826        1.65367739852897
C           -5.78858624127344       -0.72998300429102        1.83099075639695
C           -5.58292871574948       -2.01580695465955        1.29343666665489
C           -5.01925142572116        1.52356877917530        2.32510644246505
C           -6.14865567739717        1.75645509649683        3.05965970459996
C           -7.14002006110428        0.76946468035259        3.16794847011686
C           -6.95413710570091       -0.44753605540915        2.57739347714219
C           -4.56275396376673       -4.72519697226829       -0.01968253730242
C           -1.90622278943883       -3.79347045261119       -1.57422647741410
C           -1.86040691188028       -5.18607339220920       -1.62479787077907
C           -1.27100812156905       -5.83264951054035       -2.69555162041056
C           -0.70000011470093       -5.10749649164463       -3.72672673975304
C           -0.73721215051039       -3.72255607187488       -3.68727802586722
C           -1.34390704028094       -3.07140436734727       -2.63233877492175
C           -4.11287007716866       -5.76682289414086        0.78788147922633
C           -4.81145589731841       -6.95816420386610        0.84435759274518
C           -5.97054760464520       -7.12080139483706        0.10283559966091
C           -6.42866393195890       -6.08599223843840       -0.69454011718338
C           -5.73230293945937       -4.89180653426051       -0.75232075533790
C            5.01905087211836       -4.25343630264231       -0.01181851345530
C            4.80317264570929       -5.49164617590458       -0.60789903707565
C            5.62509215202872       -6.56455739047510       -0.31448875181518
C            6.67909605844131       -6.41759557165917        0.57018387651579
C            6.90850318044209       -5.18683676472565        1.16296336977540
C            6.08708546833385       -4.11472957945242        0.87478763935569
C            1.89429260341547       -3.96016588381510        0.30805922770440
C            1.36924057957497       -3.89517608033312        1.59705870210350
C            0.52640287869957       -4.88902742317812        2.05712926766886
C            0.21280581802211       -5.96773852696028        1.24507751356874
C            0.72218870093078       -6.03229410818089       -0.03898266585610
C            1.54807637169158       -5.02962572256417       -0.51198958902779
B            2.50113372248236        1.29740779487740       -0.45398443046445
B           -2.54876027694319        1.05154651433689        0.38574228552448
C            3.90649305629699        6.29918070840255        0.34595745319197
C            5.34939300778226        5.78596766767314        0.34483998474780
C            3.74956245617025        7.27530660128601       -0.82903036156153
C            3.66996500174358        7.03641772637753        1.67242924358878
H            0.07887299968812       -2.77833307314519       -0.43880694162576
H            4.29432816942745        3.59831493168559        0.03048264223953
H            1.21806790567747        6.56763769327779        0.34254779912521
H           -1.70168873504763        6.45449951578922        0.34123943935380
H           -4.53264295781335        3.23359345832088        0.29931525170740
H           -5.05205609775008        7.60243946522035       -0.92250180139012
H           -3.30375187826703        7.38741514471439       -0.95008919167953
H           -4.33997926699427        6.25442970657534       -1.81366915089551
H           -6.51027616511902        6.13804560241987        0.36633017461604
H           -5.90667072919768        4.72370674609714        1.22303454799196
H           -5.93050049373062        4.75130904942752       -0.54818085228758
H           -4.27690810926121        6.20941458114785        2.48581102847144
H           -3.27904410232427        7.37234019947636        1.61579177887957
H           -5.02856995824651        7.56849312582219        1.64498683446391
H            6.84244871937263       -1.98824263713617       -0.89316794555699
H            8.25500588270656       -0.17382156296921       -1.65386456756551
H            8.53903420485138        2.13284840112540       -2.46922997742283
H            6.56850064968108        3.60043386768093       -2.70700403651645
H            4.35103807896749        2.81684184749737       -1.99958353088943
H           -6.33246943468838       -2.78322547346437        1.42498619321189
H           -4.24079540944825        2.26763308435229        2.27636778462012
H           -6.27963527270238        2.69912250157757        3.57199777296362
H           -8.03398893115695        0.97111780194881        3.73947245540509
H           -7.69419897579360       -1.22851995822241        2.68649503064841
H           -2.29045417612881       -5.76536154080482       -0.82489711361992
H           -1.26117378647440       -6.91285979739721       -2.72625984274829
H           -0.23651975639471       -5.61512704277693       -4.55969646258026
H           -0.30432431517828       -3.14693455381550       -4.49260461016826
H           -1.39720073729966       -1.99209118099372       -2.63592638354819
H           -3.21980102950994       -5.62616673120248        1.38211692080358
H           -4.45631470275251       -7.76054529998001        1.47509333445992
H           -6.51837017040796       -8.05017385628487        0.15165907417797
H           -7.33575920985432       -6.20775826432746       -1.26912345886138
H           -6.08789883808913       -4.08078763119340       -1.37119773011524
H            4.00166846981010       -5.61286776020135       -1.31855415491923
H            5.44502068933684       -7.52051909509791       -0.78482129308461
H            7.32107275720275       -7.25680938316032        0.79444871588049
H            7.73025795540794       -5.06431819801274        1.85371808931090
H            6.25631314216472       -3.15830398085975        1.34813995813675
H            1.62315971600748       -3.05851964105234        2.23083436721246
H            0.12074349188391       -4.82847299434286        3.05707997463785
H           -0.43659751796606       -6.75110113152080        1.60801242088914
H            0.47480532707319       -6.86595293384849       -0.67885058349025
H            1.90332981173565       -5.05919215436141       -1.53187263114835
H            6.03040850150471        6.62736199285010        0.45846551575614
H            5.52251814694296        5.10022236891999        1.17116374186705
H            5.59020518569781        5.28360271632100       -0.58881458637868
H            4.47324909467379        8.08352467695210       -0.74563515622625
H            2.75453795163084        7.71116006415078       -0.85477668803781
H            3.91787621598119        6.75738067714440       -1.77141142849887
H            3.74341908435415        6.33972878910934        2.50548645042353
H            4.41733051411437        7.81592355554204        1.80765407010856
H            2.68834427349835        7.50078103240740        1.70356654304707
