132
energy: -196.940864333300 gnorm: 0.002815120734 xtb: 6.7.1 (edcfbbe)
C           -1.26297693029411        0.35363076795463        0.15063720278591
C           -1.19254316260693       -1.04451332723998       -0.03618995394853
C            0.03304233400939       -1.69162313831412       -0.15762361125840
C            1.22008714147286       -0.96548279539688       -0.18438442444076
C            1.21217689030529        0.44709317347480       -0.18811681843875
C           -0.04436564601925        1.04470275619723        0.02036965545306
N           -0.08439543864584        2.39861471122407        0.10958401694528
N           -2.39693643446857       -1.72571839032965       -0.04877111135990
N            2.45933507231989       -1.57541223845730       -0.24229253943317
C            1.00101879581718        3.22816273107641        0.05367928315317
C            0.57948741474845        4.56519280327288        0.21352269376548
C           -0.86771778316080        4.51588532832700        0.33117714711116
C           -1.21307831453790        3.14836043440623        0.28971897281542
C            2.31659356749970        2.81652763272093       -0.13691425498596
C            3.25497076255114        3.85404459399400       -0.02057363409546
C            2.89954946335936        5.18601874348721        0.16399559569755
C            1.54816830987023        5.54775069231093        0.25001602430952
C           -1.88881708958069        5.43612772944114        0.45406175074868
C           -3.21702037033403        4.99053244136749        0.50140275471429
C           -3.49615896534015        3.62791265145084        0.49043683634953
C           -2.50024516406811        2.64003141813100        0.43657457629007
C           -4.32237371454215        6.03646429355836        0.58653063645301
C           -4.23226329472008        6.96565643153758       -0.63256531129668
C           -5.72621742334227        5.42442245954698        0.60915884082060
C           -4.14055249022335        6.85023601548978        1.87607850113679
C            2.81303704829372       -2.91363807647889       -0.05840963281107
C            4.11380974472881       -3.10129421493693       -0.44280106180038
C            4.62312348284152       -1.82819227051194       -0.86581604053212
C            3.56227647691969       -0.89511009153502       -0.70157963855689
C           -3.52163148661980       -1.18133608044713        0.52645787668102
C           -4.52467033842610       -2.18847623546471        0.58597899360869
C           -3.96654698738783       -3.35454706676951       -0.04346111111925
C           -2.68522492430071       -3.03568268939101       -0.42086397317597
C            5.84404038519312       -1.39718878530663       -1.32115282397037
C            5.98796402540200       -0.04699288512983       -1.69430488966514
C            4.90050379852284        0.86966638424003       -1.55396334072530
C            3.67336723177513        0.46669631510573       -0.94452015231832
C            7.20753694193042        0.41564544733599       -2.23747147084601
C            7.34426630137389        1.69920338119084       -2.68166266277876
C            6.24697618793127        2.57160639243832       -2.63547225802822
C            5.06081541565443        2.16344517843648       -2.09038473324131
C           -3.69572649378286        0.12700367743249        0.95516737252137
C           -4.91187593271878        0.37062764738942        1.66145042342300
C           -5.94094391633842       -0.61890944325594        1.71032973870747
C           -5.74899784757658       -1.88770665016296        1.12953317605483
C           -5.11251783418964        1.56411269371072        2.38433556193317
C           -6.28457791811021        1.81307173417388        3.04391012151461
C           -7.32649338837407        0.87443106587307        3.01908272700115
C           -7.14948279251267       -0.31745156507804        2.37722765556178
C           -4.67596805961441       -4.60913169779274       -0.27617548469917
C           -1.79250850855834       -3.87610420989288       -1.21447889246575
C           -1.59727263329124       -5.21401367968084       -0.88150507142725
C           -0.81990726029248       -6.02488196142697       -1.68678336150453
C           -0.21801889233717       -5.51118629851788       -2.82280471029105
C           -0.40521295795807       -4.18028300839875       -3.15969218018785
C           -1.19393676140581       -3.36872069359202       -2.36869010226574
C           -5.38976071805895       -5.20957512646555        0.75971850898897
C           -6.06855646628471       -6.39488175567945        0.54768922808243
C           -6.04518481094022       -6.99828435987172       -0.69838717201245
C           -5.34164402634101       -6.40656580001139       -1.73459810960516
C           -4.66343177954046       -5.22028215856246       -1.52747821683775
C            4.91471674875090       -4.33187467390619       -0.37918307050481
C            4.90366091210842       -5.24223845649845       -1.43033610181680
C            5.67717720083990       -6.38740352784449       -1.37137778411820
C            6.47600290137510       -6.63050992098494       -0.26681663960703
C            6.50445197261023       -5.71980607682089        0.77644689399944
C            5.72972872210795       -4.57552216762390        0.72079176868750
C            1.98536689614628       -3.88971540975742        0.64599733148452
C            1.36038354541557       -3.54022529675355        1.84413756873382
C            0.63851501694818       -4.47840133368815        2.55516903280843
C            0.54525830970398       -5.78197043668055        2.09535885914261
C            1.17441691049903       -6.14033102669345        0.91618614644269
C            1.88482041267021       -5.20205240902056        0.19185860544359
B            2.47339650465009        1.29885137920615       -0.43743227712463
B           -2.56364627923863        1.08938605134708        0.52929357820034
C            3.94689822651156        6.28873477763319        0.26540285575812
C            5.38225656241562        5.76186776158889        0.17667466814662
C            3.73693773514386        7.28425886512027       -0.88447716124960
C            3.79049811137547        7.00748986521965        1.61322469487043
H            0.06479354137070       -2.76407564868428       -0.22574507474886
H            4.29684535989907        3.58603975806815       -0.05944434565457
H            1.25975706836812        6.58129171027254        0.36649407028807
H           -1.65884782881748        6.48984029819049        0.49543748818430
H           -4.52076798318533        3.29754060471422        0.50884481785128
H           -5.02268346231900        7.71249202708283       -0.59441374174647
H           -3.27825947085376        7.48412441597922       -0.67023046527301
H           -4.34404226971732        6.39156901485819       -1.55015026950404
H           -6.46519714087661        6.22158316763356        0.66572738617455
H           -5.86270965262134        4.77897406570104        1.47362112030223
H           -5.91986805742946        4.85200645994851       -0.29505278697571
H           -4.18492531151089        6.19414595890957        2.74314513434229
H           -3.18520999983062        7.36761333667363        1.88996527748817
H           -4.93032506778087        7.59348561735946        1.96515400078971
H            6.67775060038098       -2.07771103318121       -1.41943181571785
H            8.03140288896599       -0.28069536634569       -2.31064579844234
H            8.28246325561545        2.03983819160093       -3.09480596147609
H            6.34312649394426        3.56694594305045       -3.04539013691830
H            4.20674295912495        2.82127450970459       -2.09727515213622
H           -6.55312741054170       -2.60886101121419        1.14141094121705
H           -4.29795109107353        2.26817287518162        2.44177560617889
H           -6.41084301460189        2.73112278984094        3.60012791936076
H           -8.25301930629327        1.08900533920120        3.53147551902154
H           -7.92878380000726       -1.06694726673650        2.38745118207396
H           -2.05546305788790       -5.61066612823294        0.01184219912946
H           -0.68540577600517       -7.06410185221083       -1.42701130214336
H            0.39132465156869       -6.14780958226403       -3.44719331162529
H            0.05697210466149       -3.77560681013615       -4.04832308969684
H           -1.35489083465471       -2.33563284735734       -2.64229688863125
H           -5.39520623322672       -4.75014630156088        1.73649118624315
H           -6.61663932077744       -6.85279770559410        1.35769202165104
H           -6.57517870518692       -7.92503732280088       -0.86265120295724
H           -5.32316904126159       -6.86963139459650       -2.70994628097087
H           -4.12884435438293       -4.75357194216462       -2.34207373416251
H            4.28973281616127       -5.04498028909184       -2.29861466657497
H            5.65810794531172       -7.09131486355820       -2.19127779546694
H            7.07891286038932       -7.52560410861442       -0.22082577922933
H            7.13370495133171       -5.90134538175115        1.63613957592617
H            5.75093710034004       -3.86252336661654        1.53307355299128
H            1.44494847296046       -2.52952907973726        2.21749484043820
H            0.15405874937528       -4.19360591190956        3.47780079511315
H           -0.01257937081710       -6.51582840512377        2.65744673529162
H            1.11130153335820       -7.15685555027861        0.55779799368595
H            2.35784612606104       -5.48109856554145       -0.73581462844509
H            6.07728612104109        6.59448788657908        0.26627888449255
H            5.59451441864520        5.06131963309854        0.98076024304178
H            5.56562828276779        5.27299335504970       -0.77705691201956
H            4.48246390697849        8.07539136451459       -0.83698764413866
H            2.75288225289658        7.74280569263682       -0.84069944404146
H            3.83323273327502        6.77656240095554       -1.84214777913244
H            3.91376987060045        6.30007844050421        2.43085323365525
H            4.54440861038899        7.78562702863272        1.71368331459786
H            2.81188964021527        7.46971685329182        1.70836487591480
