132
energy: -196.931063382394 gnorm: 0.006483192609 xtb: 6.7.1 (edcfbbe)
C           -1.25116570890320        0.35319557464678       -0.08600442295107
C           -1.16807455714327       -1.04394930187773       -0.25454338401517
C            0.06108024052006       -1.69232659344793       -0.33815780390856
C            1.24977106116945       -0.96605100025095       -0.34332945097163
C            1.23586123160353        0.45131836244197       -0.32398403684239
C           -0.03135490715904        1.04572193459786       -0.17219401238594
N           -0.08665937040360        2.39859564680138       -0.06723541452817
N           -2.37035833929173       -1.72866570343333       -0.24441676387423
N            2.49351811371250       -1.57590382085552       -0.33661693579676
C            0.99072879492230        3.23892919518660       -0.04512061087360
C            0.54570555790708        4.57176115244036        0.08735044767766
C           -0.90533948163391        4.51016448127078        0.08890017260237
C           -1.23365398459228        3.13863688762551        0.03396243051762
C            2.31942221364721        2.83481543572104       -0.12078857572721
C            3.23529157871886        3.87668707192625        0.10441102416451
C            2.85554214504618        5.20400374018403        0.27397751385654
C            1.49966740625330        5.55871129929162        0.22766527395339
C           -1.94142419257732        5.42130391950977        0.12310632845151
C           -3.26663638022440        4.96401731496722        0.08170611206809
C           -3.53057397497946        3.59885810583365        0.09786710136789
C           -2.52194086071026        2.62261652160419        0.12669683170535
C           -4.38422074504561        5.99943420765999        0.04575478172224
C           -4.18856414462504        6.91151222018903       -1.17424214708120
C           -5.77852763689239        5.37303486718316       -0.05798122492835
C           -4.33424598778093        6.83494721653451        1.33303156490300
C            2.84680627091057       -2.90468964015030       -0.11150395910846
C            4.20970791001568       -3.03869917222469       -0.10734871255115
C            4.76150620179762       -1.74494537649838       -0.39768795075064
C            3.65573529484821       -0.85624380074048       -0.51253649127931
C           -3.44435971360939       -1.21457759245587        0.43833085535867
C           -4.36254887582635       -2.27221973926651        0.67298255818847
C           -3.81780154879838       -3.44150335434725        0.04032033169448
C           -2.63986073676905       -3.06544204806204       -0.56686879948610
C            6.03488789699231       -1.27495497481830       -0.59444109600875
C            6.21109578255028        0.06605226690851       -0.98843979055787
C            5.09010120997184        0.94288401834443       -1.10096604161995
C            3.77982760649911        0.50755277862571       -0.73756725410663
C            7.49808213318803        0.55112292386845       -1.30613822404210
C            7.67916426651318        1.82051446497383       -1.77639143513801
C            6.56771716023531        2.65020720276383       -1.98166030222473
C            5.31077430950843        2.21932739014333       -1.65465127016686
C           -3.64506159657946        0.10743837952399        0.80584922842992
C           -4.81626446697933        0.34249283795186        1.58666016249538
C           -5.75550951579351       -0.70742491312493        1.83139338124779
C           -5.52240004663386       -2.01372236513136        1.36032653303072
C           -5.06518229802841        1.59520403097064        2.18222117336612
C           -6.20340269488929        1.83314790248592        2.90227722491019
C           -7.15845172912120        0.82115137218834        3.07851878976294
C           -6.92752910694598       -0.42296939767973        2.56641928051735
C           -4.46928441720552       -4.74693589161165        0.14958314693092
C           -1.99030800170571       -3.71398337817221       -1.69676072389870
C           -2.08515269010664       -5.08949847512431       -1.91080921616285
C           -1.62279740352993       -5.65834279312169       -3.08323367235872
C           -1.03422732816936       -4.87611880731439       -4.06170105620326
C           -0.92473192579649       -3.50928638807479       -3.85902415539465
C           -1.40866665411955       -2.93220535029733       -2.70278091098316
C           -3.83353443360557       -5.78633290530782        0.82686401245819
C           -4.48417615671401       -6.98837662395762        1.03417261448014
C           -5.77946614126504       -7.16946904200692        0.57600639884316
C           -6.41986522316370       -6.13998245035244       -0.09360723070724
C           -5.77294555807410       -4.93535283437997       -0.30105946466443
C            4.97153442446338       -4.24803980300123        0.19230368513904
C            4.67379736631316       -5.47297019363398       -0.39982850560768
C            5.39763048783244       -6.60422770982056       -0.07378825534186
C            6.42968780184304       -6.53435889774197        0.84729151452296
C            6.73466965065656       -5.32005737733118        1.43898297979969
C            6.01509904524574       -4.18587944416971        1.11309926636939
C            1.94713173136373       -4.03871904855142        0.14573272817751
C            1.80235249971725       -4.50868386445027        1.44767034032281
C            1.08121824250827       -5.66251520348834        1.69916386872263
C            0.51845413404764       -6.37109308475511        0.65068274480358
C            0.67017088942761       -5.91493287313685       -0.65062089210577
C            1.37115801856390       -4.75171059434308       -0.90468759911275
B            2.50684624315897        1.31952170149118       -0.42694753445232
B           -2.56361715666319        1.07756316466892        0.27445152862830
C            3.87666170939671        6.31113319056844        0.50863972271980
C            5.31904942450811        5.79823291373720        0.55814290021089
C            3.77914712986297        7.33521871640246       -0.63148704179443
C            3.57466336979635        6.99710722827515        1.84941647365090
H            0.07820414539519       -2.76759099337473       -0.37696629470703
H            4.27774851074813        3.61576112991780        0.16927978429763
H            1.19389199905304        6.58889985386282        0.33108020605458
H           -1.72401433037458        6.47792285130080        0.16257557320493
H           -4.55087219666257        3.25438094304136        0.06963055355876
H           -4.99574167477201        7.63893357782518       -1.23076405342558
H           -3.24854320364288        7.45368656903194       -1.12305807856831
H           -4.19194363777745        6.32133177954480       -2.08844316084943
H           -6.52495823611825        6.16421527757229       -0.10034134745269
H           -5.99953308801854        4.75076360412294        0.80604531776077
H           -5.87342106553511        4.77414824458667       -0.96106389315296
H           -4.45819405893824        6.19246614074620        2.20263980533103
H           -3.38786164350206        7.36010922356450        1.43038287856428
H           -5.13410474950031        7.57265148139842        1.33191201449355
H            6.89523115323927       -1.92095632995208       -0.49533713501107
H            8.34033091895302       -0.11680993075626       -1.18993888868971
H            8.66847788272833        2.17914750471097       -2.02019800763492
H            6.71042946240220        3.63049928266369       -2.41367392612013
H            4.45498164011071        2.84246657646718       -1.86063187131383
H           -6.24814351278222       -2.79106134262950        1.55256073818598
H           -4.31784388645076        2.36575298487179        2.08454034684014
H           -6.36905655838447        2.80284160287694        3.34976547698169
H           -8.06018311065627        1.02553791419343        3.63678500887295
H           -7.63729485215173       -1.22308708258906        2.72533316007975
H           -2.52602698686283       -5.72111924365092       -1.15816990001272
H           -1.72613012220025       -6.72389467392114       -3.23275982310473
H           -0.67087070258392       -5.32295379304471       -4.97507613831121
H           -0.47555379787453       -2.88244560738438       -4.61681827128960
H           -1.35450428544780       -1.85909706224918       -2.59561239174126
H           -2.83049129444959       -5.64025345305224        1.20636543173487
H           -3.98170171245491       -7.78373075414588        1.56577615740460
H           -6.28962492350456       -8.10592265148437        0.74621877943385
H           -7.43155725229335       -6.27431276427669       -0.44966889671783
H           -6.27452736629989       -4.13352557990233       -0.82365783686732
H            3.87819510087397       -5.53801031314329       -1.12669824977621
H            5.15500246195006       -7.54690438528345       -0.54325850377601
H            6.99225184770135       -7.42042879384261        1.10285095744728
H            7.53424732720853       -5.25767089964352        2.16288020802520
H            6.24718282177647       -3.24406813436902        1.59004972118797
H            2.26696219669815       -3.96976010984950        2.26117642821019
H            0.97544295053678       -6.01650371214460        2.71529278793412
H           -0.02851822657330       -7.28215785762572        0.84260739548806
H            0.25282989071241       -6.47319181084256       -1.47476627947075
H            1.48071510853145       -4.39752371441524       -1.92148949457459
H            5.99299430254079        6.63786682186157        0.71810936282338
H            5.45915093815542        5.09602832119585        1.37676346153898
H            5.60045031905673        5.31562542243041       -0.37457396258039
H            4.50131324583241        8.13460016965630       -0.47898040211264
H            2.78906474211317        7.77911726936480       -0.68607645280127
H            3.99070192733206        6.85642732098015       -1.58542031029576
H            3.60294948274952        6.26943561162431        2.65819690132998
H            4.31704970808172        7.76664757308667        2.05195285907244
H            2.59413552814565        7.46524013004968        1.84759159642753
