132
energy: -196.933519928955 gnorm: 0.003798123356 xtb: 6.7.1 (edcfbbe)
C           -1.26136279509970        0.34985180855826       -0.05355565211392
C           -1.18210504325848       -1.04543846681547       -0.23341152085689
C            0.04621658300789       -1.69284188344274       -0.33938125961635
C            1.23476824030113       -0.96857703387530       -0.33167447283182
C            1.22378867548947        0.44710152692602       -0.30762406339447
C           -0.04110003979803        1.04283229310264       -0.14849122767925
N           -0.09438174146110        2.39653784168666       -0.05405784566855
N           -2.37892563514641       -1.73805621676339       -0.21629731058720
N            2.47390036744641       -1.58415734113768       -0.33309881787922
C            0.98589587476159        3.23336704345757       -0.04327343108388
C            0.54755250771816        4.56710759466884        0.09504718887867
C           -0.90307820858853        4.50865239619659        0.12899043324874
C           -1.23547954659000        3.13875196071207        0.07775820946614
C            2.31284566166252        2.82639113484615       -0.13735117125634
C            3.23464359201082        3.86569168065853        0.06521633055334
C            2.86061127807749        5.19569755236158        0.22888756280475
C            1.50604663592588        5.55357176436930        0.20948910294743
C           -1.93604698908036        5.42293598575707        0.18602982192336
C           -3.26139443974721        4.96817580714138        0.18071180144417
C           -3.52952569533592        3.60263277305011        0.19210639483467
C           -2.52399684837681        2.62408765226371        0.18836845763395
C           -4.37702308446576        6.00705723530921        0.18897241824294
C           -4.23637982971434        6.90847133533543       -1.04613728087148
C           -5.77539633107296        5.38325150679945        0.15875020402317
C           -4.26148115554823        6.85088144383745        1.46655395341323
C            2.81995948008146       -2.91901712377759       -0.13205093867128
C            4.18026883432724       -3.06749819508321       -0.20036118557884
C            4.72892553280487       -1.77204466364636       -0.50372067765318
C            3.63044314022018       -0.87205552480157       -0.55861253722162
C           -3.46163940696151       -1.21390638440828        0.44595347930275
C           -4.39568835596810       -2.26216279093065        0.66071089987676
C           -3.84727351957521       -3.43552934936490        0.03850321457600
C           -2.64846163563751       -3.07468643867354       -0.53147817849449
C            5.99866190044573       -1.31517556115987       -0.75232432239851
C            6.17337985275530        0.03042339529601       -1.12850543819678
C            5.05723585426026        0.91789808392391       -1.18938470058009
C            3.75635666717352        0.49234342927437       -0.78341543192910
C            7.45454749572412        0.51428860881075       -1.47576314379944
C            7.63043005388162        1.79110207734821       -1.92496271779738
C            6.51793741922171        2.63052576095145       -2.08855184855829
C            5.26882466728995        2.20107637421984       -1.73429871058191
C           -3.65479106301003        0.10363512829218        0.83480698620423
C           -4.82107656031707        0.33216145562409        1.62514073433690
C           -5.77518018174632       -0.70873500885707        1.84709362856579
C           -5.55941868675519       -2.00567964981369        1.34208877841142
C           -5.03720110982926        1.56909189831113        2.26632204778248
C           -6.15645221493927        1.80154229378649        3.01621143071644
C           -7.12924446293729        0.80203878984747        3.16893283489245
C           -6.93298039115640       -0.42569888677878        2.60593840616795
C           -4.52046792077100       -4.73445136272668        0.08045419818337
C           -1.93707001877621       -3.76831967449230       -1.59902511167679
C           -1.92653082236669       -5.15853405296986       -1.70552327558835
C           -1.35507124500348       -5.77764792562678       -2.80130059141759
C           -0.75955829733251       -5.02994555781746       -3.80150229411592
C           -0.77247101753513       -3.64763632937049       -3.71465026215888
C           -1.36763825410299       -3.02286267747808       -2.63813354615353
C           -3.96412684863924       -5.78814997014915        0.80424260557936
C           -4.62393696663534       -6.99937204253464        0.89175679950050
C           -5.84996591126952       -7.16920527647267        0.26856920955201
C           -6.41840437755983       -6.12044348428566       -0.43475847373487
C           -5.76109672882741       -4.90679194495371       -0.52403083010088
C            4.98429385228182       -4.25474973158290        0.07915078862911
C            4.70781119145389       -5.50045039226164       -0.47669679818998
C            5.50426732716797       -6.59227227722019       -0.18484263764589
C            6.59353376751631       -6.45838721498387        0.65798727303905
C            6.87828950401407       -5.22352750066292        1.21760799368584
C            6.08093801144539       -4.13244138105261        0.93300342262133
C            1.87912685863856       -4.00062062488606        0.20291547732942
C            1.41816564190880       -4.15218358944350        1.50833347877002
C            0.60812011096771       -5.22298313479511        1.84020694213995
C            0.28248716388451       -6.17166950118033        0.88479283061307
C            0.74622353252737       -6.03220073233127       -0.41204725029249
C            1.52108684671355       -4.94132233767462       -0.75970426293714
B            2.49580080941039        1.31024031458674       -0.43657495845657
B           -2.56894196794567        1.07689972012410        0.31925979710648
C            3.89198655594552        6.30162422514909        0.42093310613481
C            5.33150237791453        5.77989473196886        0.44798341007674
C            3.77141740841205        7.29964787901455       -0.73973271221079
C            3.62343979864915        7.01478930540695        1.75398889105080
H            0.06772791496873       -2.76595481021957       -0.40966595008045
H            4.27662817466759        3.60158233604666        0.11530014425839
H            1.20609015924457        6.58538209253515        0.31088168335172
H           -1.71621410139877        6.47919348853286        0.21790459808595
H           -4.55117108671713        3.26191327196967        0.18642319987496
H           -5.03810209061738        7.64392850963166       -1.06687290625795
H           -3.28913600679242        7.44065024691442       -1.04788757129095
H           -4.29286975782284        6.31157288418391       -1.95432493985311
H           -6.52294440129596        6.17411997266388        0.16190112665066
H           -5.94767015767989        4.75619478668968        1.03026602935143
H           -5.91999398580808        4.78894885608567       -0.74083003226790
H           -4.34485332986643        6.21342581275098        2.34473208907496
H           -3.30954571709405        7.37253441511061        1.51474631433143
H           -5.05688731007035        7.59232365944280        1.50113254993000
H            6.85281823348962       -1.97467104540230       -0.70332438098063
H            8.29575034165419       -0.16048191824203       -1.39525053800340
H            8.61517317518083        2.15080746288508       -2.18569420605519
H            6.65637508167975        3.61597536858627       -2.51017436243824
H            4.40878184578673        2.82805952919432       -1.90748097873662
H           -6.29261269969389       -2.78133743611192        1.51155875866587
H           -4.27464485264246        2.32611901601465        2.18202516545145
H           -6.29438543529778        2.75417233619162        3.50709660733838
H           -8.01658989569581        1.00378132543259        3.75099384007040
H           -7.65760967448409       -1.21590437912710        2.74679710655328
H           -2.37101816561036       -5.75961290739245       -0.93108563134087
H           -1.37567252149957       -6.85572532767335       -2.87295340162924
H           -0.29899032971084       -5.51813794513187       -4.64720378358202
H           -0.33002006014817       -3.05177569660657       -4.49998362783538
H           -1.40795581819355       -1.94431241082222       -2.61177257769682
H           -3.01814236075567       -5.64156244144359        1.30874433010970
H           -4.18495080415153       -7.81284061504882        1.45241509221480
H           -6.36426055209554       -8.11645869394388        0.33733600104946
H           -7.37859220392022       -6.24810282654950       -0.91367127404237
H           -6.19826393872065       -4.08494502064512       -1.07300667175764
H            3.87347580399446       -5.61266850432495       -1.14939049551574
H            5.27618348739381       -7.55288823079804       -0.62393969813758
H            7.21785535607913       -7.31199553399295        0.87824173673629
H            7.72445670954628       -5.11274177591561        1.87983065910225
H            6.29095339634542       -3.17449271658361        1.38666610137869
H            1.69939264432984       -3.42679640717359        2.25906251217618
H            0.24473373895925       -5.32789215525822        2.85205958862554
H           -0.33007648535841       -7.02160119498509        1.14774828854292
H            0.50830041566229       -6.77767350406722       -1.15455352029644
H            1.83983830880955       -4.80464501189122       -1.78420130646159
H            6.01555906294886        6.61583417123901        0.57983229697186
H            5.48315233848432        5.08952050932114        1.27459622376069
H            5.58844424364198        5.27992369180381       -0.48251869165515
H            4.51637646192286        8.08599977269217       -0.63868901279818
H            2.78956680121812        7.76438121619695       -0.76559039078380
H            3.93234054897305        6.79152586445316       -1.68834045125805
H            3.68866732160487        6.30565006681676        2.57701920497379
H            4.35940923299612        7.79987453553714        1.91557243943654
H            2.63585721901257        7.46728073770719        1.77375905817210
