132
energy: -196.925587450286 gnorm: 0.007497746552 xtb: 6.7.1 (edcfbbe)
C           -1.31687665553064        0.35240909561657       -0.22327225099547
C           -1.24056074345583       -1.05109148636262       -0.30974144269128
C           -0.01200186969375       -1.71111757249092       -0.26540824940971
C            1.19138923929008       -1.00448800904659       -0.29922412559037
C            1.17537259144317        0.41339656321771       -0.36575312588374
C           -0.08866905349557        1.03098297969105       -0.28540241000438
N           -0.13713204487038        2.38872511237672       -0.22887510286267
N           -2.45656659346945       -1.72004120776484       -0.33786319898899
N            2.44238597591668       -1.61597631685585       -0.24667272397751
C            0.94635377250054        3.21690174053553       -0.14422187423389
C            0.51538206745232        4.55073951432605        0.01209267163730
C           -0.93328230850383        4.50693597890553       -0.02843155217936
C           -1.27687277204967        3.14190251231500       -0.13620563319606
C            2.26954149615481        2.79626136891234       -0.17463803485161
C            3.19544012882216        3.81486010238023        0.10017984286780
C            2.82594046260110        5.14158332127287        0.29377684188138
C            1.47790708883535        5.51668732278696        0.21909457705004
C           -1.95688541887860        5.42907470614377        0.03600459781378
C           -3.28713642512462        4.99287885171366       -0.03142479553664
C           -3.57116547838686        3.63164422110981       -0.07224995029213
C           -2.57354832020849        2.64299044755475       -0.06742240200447
C           -4.38245871623216        6.05243583889624       -0.01642131805069
C           -4.17413180299164        7.00183563781473       -1.20555909466996
C           -5.79192340092464        5.46372318883568       -0.12549751501261
C           -4.29619072211836        6.83362452922591        1.30309124292705
C            2.82259194220103       -2.93364055583582        0.03880783093417
C            4.19279300955311       -3.03024356083319        0.09040094537925
C            4.72450892003486       -1.73850832843423       -0.23897505442765
C            3.60236705075821       -0.88403449390367       -0.42248900688661
C           -3.52472249217299       -1.17628082017237        0.33605963786253
C           -4.45719842918299       -2.21349882660563        0.60739867818111
C           -3.93882619498587       -3.40240416715640       -0.01998760247253
C           -2.76213646618860       -3.05198558569700       -0.66158199190311
C            5.99577706574383       -1.25327326181248       -0.42703379261119
C            6.16742822158891        0.06763220259609       -0.88104767250100
C            5.03346077685698        0.91435886765242       -1.06235758667440
C            3.72461766617026        0.46864981281042       -0.70948887679915
C            7.45254156585806        0.56951127358274       -1.18661936248503
C            7.61780145460618        1.81925955700642       -1.71127747467471
C            6.49441855870636        2.61490107677067       -1.98423592104108
C            5.23993843024816        2.17143854560895       -1.66710825298002
C           -3.70120721422533        0.15656862047943        0.67651555331148
C           -4.83422379474963        0.43023853923804        1.49804125898218
C           -5.77865858903314       -0.59940154314293        1.80061793364968
C           -5.58583992759612       -1.91488039299498        1.33427592082391
C           -5.02210851164536        1.69500257363897        2.09215433829916
C           -6.10854626954343        1.96443394822909        2.87700373744726
C           -7.07628753509356        0.97522392002686        3.10967467613012
C           -6.90477645131351       -0.27668892260214        2.59227040907513
C           -4.54773109021447       -4.71589850150193        0.17208154184303
C           -2.12697814222861       -3.71168564130722       -1.79755254464874
C           -2.45664262365413       -5.02201866815154       -2.16528681272097
C           -1.92463449592715       -5.60796975550521       -3.29760784832361
C           -1.03856410259550       -4.91260840121290       -4.10477699141190
C           -0.73799824963731       -3.59947800097537       -3.78570140124539
C           -1.28751439996952       -3.00240770335761       -2.66754770160864
C           -3.76970850165142       -5.77414145060339        0.65074940462479
C           -4.34060746724139       -7.00195183082908        0.92356224492158
C           -5.70145281703444       -7.19367147110927        0.74285286223083
C           -6.48512953587584       -6.14842995625418        0.28119759573499
C           -5.91527729507129       -4.92058468849748       -0.00367736799465
C            5.01885802730346       -4.20487922884295        0.36123525297127
C            4.77009953419344       -5.43738910467139       -0.24002086710689
C            5.60649775293322       -6.51319942046229       -0.00875356851876
C            6.71137853819684       -6.37837077721722        0.81641796009722
C            6.96340809149954       -5.16141817477515        1.42770958091781
C            6.12273005086525       -4.08687530983791        1.20707231284034
C            1.97634452818851       -4.11888783195155        0.22049285621041
C            2.11248960207581       -4.87088218961456        1.38912750670058
C            1.46731740799355       -6.08513762300776        1.52657801713965
C            0.66677222121654       -6.56774845539648        0.50291125150608
C            0.52451079766188       -5.83030099587536       -0.66210676097112
C            1.18227272421359       -4.62259969193012       -0.80961588057329
B            2.44553776749799        1.27990651335159       -0.46122534262765
B           -2.62624152875457        1.10145407591322        0.09421586059920
C            3.85199854296176        6.23079817485381        0.58061011876738
C            5.28838877733190        5.70306060571153        0.64072922071835
C            3.77796640947952        7.27869275731744       -0.53972186741068
C            3.53079341134735        6.87994588994359        1.93460285676385
H           -0.01581785743323       -2.78537603327834       -0.19459824408968
H            4.23153771708277        3.53642509608786        0.18594623723636
H            1.18636465517983        6.54651185030071        0.35361241251162
H           -1.72803535943105        6.47915183246142        0.12820479866901
H           -4.59641550816878        3.30338564807111       -0.11427342628283
H           -4.96122730486871        7.75282468746587       -1.23180968762131
H           -3.21869120333086        7.51551773303646       -1.14497191222159
H           -4.20018963425539        6.44208638363091       -2.13841219068383
H           -6.52016915071058        6.27284389252231       -0.12004613767985
H           -6.01355832367517        4.80828117516308        0.71353525424854
H           -5.91470086418444        4.90870843258747       -1.05270866367426
H           -4.40687591518245        6.15443901287519        2.14617263495487
H           -3.34285702504778        7.34537353799499        1.40264447792898
H           -5.08782749114838        7.57857096567407        1.35341936019205
H            6.86262121155593       -1.87923487740528       -0.27628975038580
H            8.30950818129034       -0.06728202002743       -1.01581411523828
H            8.60450040183326        2.19164689385547       -1.94478104870227
H            6.62979562818906        3.57681482773874       -2.45777616892925
H            4.37674415772944        2.76888712909326       -1.91553919459539
H           -6.31834477998127       -2.67132994685341        1.57597692663160
H           -4.26491455949583        2.44777040944856        1.94412357364698
H           -6.22353888489242        2.93750667895044        3.33268944149097
H           -7.93959891154961        1.20633659207235        3.71632588152915
H           -7.62986613601864       -1.05215340500305        2.79782083857945
H           -3.14730582654783       -5.59291191851928       -1.56802759482492
H           -2.20421746214452       -6.62069552108142       -3.55147433635701
H           -0.60522611758031       -5.37970673909883       -4.97617497136068
H           -0.07378976344179       -3.02874210861828       -4.41884533421835
H           -1.06595424531916       -1.96296981247265       -2.48885794865263
H           -2.71127472182422       -5.62138877117064        0.81333674084511
H           -3.72463192429129       -7.81279216965692        1.28535223196732
H           -6.14800609271032       -8.15175139847938        0.96418764418418
H           -7.54701231817860       -6.29370720641115        0.14347595103625
H           -6.52834439301014       -4.11632054326258       -0.38409548034725
H            3.92565427514884       -5.54719059139130       -0.90382651224050
H            5.40226618088154       -7.46196316200942       -0.48326865166971
H            7.37281858066990       -7.21608666194982        0.98136656206637
H            7.82028477266929       -5.05109029074647        2.07752854122152
H            6.31029060455629       -3.14681267899588        1.70565841224621
H            2.74118894139922       -4.50250649942506        2.18694311963287
H            1.59788536156940       -6.66385638567406        2.43048514053699
H            0.16800606034005       -7.52009684562098        0.60498612963837
H           -0.08873495781623       -6.20254425668894       -1.46848615352357
H            1.09790965896718       -4.08177029005823       -1.74194456605819
H            5.96736235528694        6.53098199046756        0.83676093565753
H            5.40742203112729        4.97616257688201        1.44101915818222
H            5.58077899179176        5.24421290140593       -0.30061358062049
H            4.52691708040875        8.05280115889845       -0.38508296119931
H            2.80173522944546        7.75419077924056       -0.57665690666166
H            3.96238318026848        6.80605018262971       -1.50245932292746
H            3.55552375903194        6.12987072871442        2.72274471014586
H            4.26453055821013        7.64897861641563        2.16745749783506
H            2.54628993882250        7.33966835644800        1.93523546016135
