132
energy: -196.935895226541 gnorm: 0.002063529276 xtb: 6.7.1 (edcfbbe)
C           -1.23526110576459        0.31767934013363        0.13024727599321
C           -1.16209940262451       -1.07520237154629       -0.08455297398333
C            0.06272329035510       -1.71983270163704       -0.21687009006308
C            1.24714140990040       -0.99052139924243       -0.23602470489953
C            1.23706425398600        0.42283971503755       -0.22773056661217
C           -0.01995062531607        1.01377612399740       -0.00261168597915
N           -0.06521734024744        2.36592273152360        0.10272871729392
N           -2.36208979590880       -1.75965679616212       -0.10346269801442
N            2.48544753898329       -1.59867418044207       -0.28762161422737
C            1.01288423588280        3.20268997782352        0.02702772309907
C            0.58190772441186        4.53700931531736        0.18770882948261
C           -0.86278954758941        4.47687270572405        0.33005386062563
C           -1.19787932034853        3.10676276486626        0.29726289914697
C            2.32920493262260        2.79978452586180       -0.18138528158396
C            3.25882686107629        3.84825748032320       -0.08949639620375
C            2.89380515504306        5.17937122973726        0.08458472076206
C            1.54121177545839        5.52898386563238        0.19649559997324
C           -1.88974695966397        5.38969716744747        0.46468262587485
C           -3.21331486878354        4.93365420987637        0.53393531297834
C           -3.48163467122347        3.56886070556751        0.52996559059278
C           -2.47947920600781        2.58893390889253        0.46101326912378
C           -4.32761754239550        5.96832974188783        0.63935567446270
C           -4.26058940573594        6.91251169276158       -0.56933552843664
C           -5.72518639292874        5.34204946446557        0.66882175982555
C           -4.13913764226268        6.76747333519896        1.93706016137367
C            2.83479749471104       -2.93034712536950       -0.06820715793473
C            4.16480891347860       -3.10995949948860       -0.34234424366587
C            4.68475140271206       -1.83457506640015       -0.76240012389180
C            3.60551149506375       -0.91181671389336       -0.68702406404502
C           -3.47461382767079       -1.23938992458342        0.51035614494721
C           -4.46025007529850       -2.26163263403361        0.57851120502978
C           -3.90028926578248       -3.41225256092170       -0.07333454579818
C           -2.64186986790563       -3.07036321300968       -0.49625091054240
C            5.91668364515066       -1.40004000085095       -1.18131926026249
C            6.05749410868155       -0.06051388441009       -1.59537137470553
C            4.95824777539354        0.84886273568563       -1.51797213725922
C            3.71238071648108        0.44815478566898       -0.94614902697877
C            7.28764036469064        0.39488609321279       -2.11955187649731
C            7.42623632777285        1.66456767859524       -2.60219118544680
C            6.32168455110278        2.52859235739213       -2.61292256636653
C            5.12366396156421        2.12724618886487       -2.08859145565657
C           -3.65438337516451        0.05884644475618        0.96621887532819
C           -4.86380032302971        0.27547632431719        1.69296617998580
C           -5.87523536454589       -0.73277357515091        1.75485178232518
C           -5.67139170187859       -1.99681558703796        1.16788274385951
C           -5.07501801904651        1.46318661043996        2.42268490006868
C           -6.24410130202335        1.69329907134645        3.09388627022051
C           -7.27156143075151        0.73831600720469        3.07781758146092
C           -7.08061572976896       -0.45152162917206        2.43628945567780
C           -4.63152173329066       -4.67160752893265       -0.26055052418386
C           -1.81443019802706       -3.80703009390477       -1.44632905231659
C           -1.66068577320596       -5.18838536367394       -1.36272426413061
C           -0.94514235703825       -5.87322189831586       -2.32847441934959
C           -0.36653733691645       -5.19391215393206       -3.38639531510254
C           -0.51962842179900       -3.81966824282574       -3.48269625062491
C           -1.24310269571975       -3.13227875476799       -2.52888357419228
C           -4.39641105658431       -5.75688963932327        0.57809754217944
C           -5.12162415840760       -6.92521089376311        0.42902674221945
C           -6.09363689309775       -7.02008328066502       -0.55441882663752
C           -6.33916377901854       -5.94062933261863       -1.38636197488696
C           -5.61503315499587       -4.77099486557608       -1.23897175481944
C            4.98470305668368       -4.30498070041370       -0.14319328549895
C            4.70511663982930       -5.51391295872440       -0.77139335455399
C            5.50647867405632       -6.61990434681910       -0.55462605866427
C            6.60335906516926       -6.53354070447091        0.28510186234624
C            6.90020324816336       -5.32977812322971        0.90269578724428
C            6.09996247308075       -4.22381139541092        0.68890966957308
C            1.93199058914046       -3.87060734069528        0.60626119985220
C            1.51424940960717       -3.57040520636795        1.90359255577009
C            0.68994735052922       -4.43852694993797        2.59223470484977
C            0.28194863742062       -5.62434020521791        2.00220668578757
C            0.69372677828027       -5.92977679906732        0.71672487207565
C            1.50687601599189       -5.05604171963340        0.01715952619081
B            2.49616686833229        1.27935601181766       -0.47429044944931
B           -2.53507627058060        1.03751290686536        0.53932162501072
C            3.93026763616506        6.29561414316592        0.14571441438175
C            5.36876498933222        5.78678592808514        0.01301737839231
C            3.67208757317508        7.28145630696048       -1.00320286327543
C            3.80717207093236        7.02241200276349        1.49271650193753
H            0.08990915874898       -2.79121355503048       -0.30175539416785
H            4.30296788592919        3.59113576115648       -0.14022935214469
H            1.24523574520992        6.56072326513654        0.31010319212354
H           -1.66824242372590        6.44553194453380        0.49845415694302
H           -4.50295244860925        3.23013624398932        0.56490004155879
H           -5.06048088689157        7.64822096513412       -0.51504027765331
H           -3.31430338905607        7.44459247617381       -0.60996017906500
H           -4.37363081231860        6.34772358671530       -1.49253008779991
H           -6.47228322565736        6.13156254504140        0.72695555573363
H           -5.85164886434167        4.69678598724865        1.53500013388253
H           -5.91653983983952        4.76603683385229       -0.23372200334158
H           -4.15900606139353        6.09855821664931        2.79513907744011
H           -3.19155969863971        7.29926983728149        1.94273527658176
H           -4.93898009955408        7.49652202291032        2.04913673313672
H            6.76319099692417       -2.06990251720972       -1.22811926647705
H            8.11790044553508       -0.29697079810445       -2.14948203091626
H            8.37191712183237        1.99947157908617       -3.00285858373356
H            6.42217692419584        3.51107462392533       -3.05205933500655
H            4.26358772353333        2.77510665049746       -2.14293121176349
H           -6.45095675427687       -2.74412889426877        1.20741150985880
H           -4.27071099397613        2.17939939152137        2.47313623826386
H           -6.37994545812636        2.60881314094952        3.65213103634256
H           -8.19754569318635        0.93982479036794        3.59625937552326
H           -7.84749640011514       -1.21366288848835        2.45360801996451
H           -2.09913656783981       -5.72419942711505       -0.53660408041179
H           -0.83873948420085       -6.94555228242454       -2.25403998866455
H            0.19442718785653       -5.73097806400655       -4.13735227628221
H           -0.08058425783460       -3.28238098023278       -4.31087678581325
H           -1.37640605036032       -2.06424774622153       -2.62426360331098
H           -3.64879371017459       -5.67467079130346        1.35615842408004
H           -4.93186094361407       -7.76344981859026        1.08442163794888
H           -6.66278438185725       -7.93138011351239       -0.66682781077961
H           -7.10100548098958       -6.00875206870891       -2.14981248816915
H           -5.80576215718023       -3.92574872037529       -1.88489868498945
H            3.87070908665686       -5.58149102711206       -1.45168277099667
H            5.27635271458046       -7.55325352947777       -1.04810730868075
H            7.22800969506073       -7.39854064914443        0.45347227628702
H            7.75821363496899       -5.25415484875539        1.55516392099948
H            6.32579886046872       -3.28743855595334        1.17890894852218
H            1.83950710079234       -2.64889272454836        2.36557177460157
H            0.36776078275141       -4.19218486451028        3.59397253686133
H           -0.35802270928302       -6.30563362191372        2.54353450271132
H            0.37732206338758       -6.85147447371719        0.25165418267639
H            1.78235251931482       -5.27889920032279       -1.00231396773458
H            6.05368701832536        6.63169887905004        0.04836385037348
H            5.62503231850796        5.11355066242835        0.82765273315949
H            5.51984672024367        5.27217372759486       -0.93278336735380
H            4.40523804241084        8.08557280908636       -0.97906902673802
H            2.68190775279144        7.72394755615795       -0.93577984772732
H            3.75186202519412        6.77058538045098       -1.96112976806579
H            3.95899241865116        6.32200554508744        2.31174239560983
H            4.55766101374757        7.80709385761027        1.56621605911868
H            2.82789076338243        7.47777964379256        1.61216911631630
