132
energy: -196.930587728066 gnorm: 0.006947124950 xtb: 6.7.1 (edcfbbe)
C           -1.25771775785518        0.35616166881278       -0.09437112973901
C           -1.17677991747246       -1.04070886088444       -0.26152318430336
C            0.05233831404017       -1.69019778279989       -0.33189578386884
C            1.24324540141416       -0.96715610257960       -0.33639150319486
C            1.22997520705567        0.44978903285095       -0.32293639857946
C           -0.03693769374188        1.04852030794755       -0.17700809782570
N           -0.09010213800316        2.40120386995281       -0.07370945525909
N           -2.38095344291845       -1.72287183633498       -0.25861064139942
N            2.48777468681450       -1.57582948972075       -0.32203974476385
C            0.98780377921073        3.24001879398534       -0.05441542609149
C            0.54448788404557        4.57441622697986        0.06971415895716
C           -0.90566469685117        4.51467030731447        0.06719339222399
C           -1.23623779705679        3.14340355053658        0.01820417472860
C            2.31515574574967        2.83158149757644       -0.12230161799712
C            3.23508494952120        3.86839258556044        0.10565829416921
C            2.85677728387788        5.19649346418201        0.26856210623116
C            1.50302378299090        5.55698086741982        0.20986745302059
C           -1.94344357037195        5.42416107643903        0.09797750261570
C           -3.26760100703687        4.96561423810818        0.05631639230372
C           -3.53423681658012        3.60111431966487        0.07215481247878
C           -2.52458629877062        2.62684882863560        0.10798705489045
C           -4.38433601558104        6.00215007763549        0.02886077015042
C           -4.19050218908840        6.92240054802005       -1.18507106183303
C           -5.78033895432883        5.37982326431089       -0.07655525689259
C           -4.32762055708265        6.82167010789668        1.32623998662600
C            2.83960801662601       -2.90560218630629       -0.09767869636461
C            4.20357166659655       -3.03650314986862       -0.08653648870244
C            4.75679521531283       -1.74318721770165       -0.37506467346853
C            3.65114827094448       -0.85625467996287       -0.49532510467056
C           -3.45547269580246       -1.20583961039838        0.42244090058374
C           -4.37195594479061       -2.26366851818202        0.66306973657579
C           -3.82748417487270       -3.43472196519857        0.03118582340247
C           -2.65058639919948       -3.05996209940355       -0.58107560609730
C            6.03102073172036       -1.27304044209695       -0.56999340084568
C            6.21004002212165        0.06496709307449       -0.96952718312601
C            5.08861000570650        0.94113819002152       -1.08855038012110
C            3.77739407908739        0.50676715444493       -0.72658047359932
C            7.49732347965678        0.55025775568874       -1.28906663511997
C            7.67930396995579        1.81618592462365       -1.76683630323854
C            6.56747416963839        2.64565980964087       -1.97756071319027
C            5.31136882660948        2.21581515010481       -1.64814791941318
C           -3.65576914479384        0.11652000470335        0.79142194734385
C           -4.82561192175073        0.35178716512384        1.57425387875437
C           -5.76030867706571       -0.70064682737148        1.83049233659804
C           -5.52588340559631       -2.00646286606013        1.36059151948452
C           -5.07967049452377        1.60683890503411        2.16385682986963
C           -6.21301078321623        1.84375029914450        2.89130916410478
C           -7.16124923916201        0.82701976260307        3.08278028820334
C           -6.92702361094173       -0.41780564918426        2.57518576300086
C           -4.47358376432705       -4.74068298020982        0.15996042821662
C           -2.00547380194567       -3.71069338676695       -1.71357961904066
C           -2.13870234045060       -5.07963015877634       -1.94895754512047
C           -1.67860942292662       -5.64996579984715       -3.12068570858065
C           -1.04937854069010       -4.87684166415532       -4.07949038998556
C           -0.90388813609374       -3.51665491894012       -3.85893598440131
C           -1.38806956504586       -2.93713817957380       -2.70389459625312
C           -3.81617386428950       -5.78149517535444        0.81381929739870
C           -4.45840499332188       -6.98513961752055        1.03607100364379
C           -5.76701167658672       -7.16447800070182        0.61938749516580
C           -6.43096471370708       -6.13266992030320       -0.02302771226794
C           -5.79093254832173       -4.92804846005377       -0.24864223108894
C            4.97240881239042       -4.24091692623826        0.21473462715703
C            4.69269822119700       -5.46614883550446       -0.38504876029407
C            5.43720161198053       -6.58709951434529       -0.06887031263570
C            6.47094560113139       -6.50374745605291        0.84861903873784
C            6.75562422757074       -5.28984378759395        1.45197787943902
C            6.01433928969987       -4.16718469127140        1.13695802447468
C            1.94509490500290       -4.04699172834421        0.14806270356919
C            1.84479975530370       -4.56506421984400        1.43429696860457
C            1.13407209317190       -5.72775782373022        1.66941951369704
C            0.53028570474267       -6.39805768548841        0.61940383636033
C            0.63577996907965       -5.89518345165850       -0.66601816431728
C            1.33316579403721       -4.72606469958896       -0.90358522666479
B            2.50175597265761        1.31662274207620       -0.42338678439394
B           -2.57035450456709        1.08299110532434        0.26017186141006
C            3.87929190682018        6.29913149950405        0.51816866269180
C            5.32088901665018        5.78346887169777        0.57348919380122
C            3.79320288164124        7.33254735648684       -0.61458113876049
C            3.56745011825356        6.96793511054304        1.86513176130501
H            0.06785646082461       -2.76523941822125       -0.36238033060286
H            4.27578301456821        3.60405194951082        0.17900034469537
H            1.20500779904796        6.58957413136947        0.30607038976786
H           -1.73012325869699        6.48108919468648        0.13562326996929
H           -4.55457577511573        3.25792973218462        0.03990053451199
H           -4.99325020658453        7.65562719868667       -1.23254024184019
H           -3.24660116814746        7.45789374391258       -1.13737003641306
H           -4.20375434993114        6.33723679674025       -2.10257345924878
H           -6.52432641386490        6.17348335538260       -0.11396432260479
H           -6.00270951373716        4.75364751901152        0.78438802505299
H           -5.87806678813168        4.78590359357025       -0.98251591234195
H           -4.45433339801669        6.16675144577401        2.18624264183643
H           -3.37720124302367        7.33789912999220        1.43000950933654
H           -5.12235492706210        7.56492185654854        1.33799713461038
H            6.89024321303513       -1.91945839828745       -0.46501253326025
H            8.34150040715926       -0.11464110011104       -1.16898940161584
H            8.66826076771610        2.17399372859350       -2.01312315435448
H            6.71234817814408        3.62318552289047       -2.41495198110212
H            4.45634712349649        2.83900958642913       -1.85719299974861
H           -6.24620927998436       -2.78611488070522        1.56323115394464
H           -4.33884168614505        2.38221365319186        2.05544773989054
H           -6.38229442588884        2.81484878923730        3.33362831713635
H           -8.05867105471870        1.03004358999426        3.64844664290044
H           -7.63256992742643       -1.21948070850265        2.74594131709512
H           -2.61181975816730       -5.70497513245033       -1.21435926750153
H           -1.81184934059079       -6.70940884299959       -3.28581394810004
H           -0.68593204907122       -5.32490395472480       -4.99185779722866
H           -0.42497572327219       -2.89727639729765       -4.60308203124467
H           -1.30427017593391       -1.86737355657951       -2.58688965608835
H           -2.80286624547581       -5.63378711155872        1.16208606489154
H           -3.94096020409565       -7.78403411387939        1.54639676780618
H           -6.26959666343972       -8.10271012509846        0.80163914249045
H           -7.45337164026714       -6.26846058016264       -0.34452700608349
H           -6.30610405283577       -4.12511565071200       -0.75445682060349
H            3.89610904650326       -5.53664210418480       -1.10995224842367
H            5.21266438233435       -7.53158281911913       -0.54332614518204
H            7.05281962458218       -7.38048650108932        1.09298334140862
H            7.55648200433043       -5.22157009355523        2.17358869881823
H            6.22566617196715       -3.22467114592382        1.62150439370795
H            2.33531138288310       -4.05581317312598        2.25036352723815
H            1.06600453619739       -6.12082072409186        2.67220377163233
H           -0.01165342686865       -7.31465511307936        0.79815994635972
H            0.18709624806098       -6.42335407895097       -1.49212818381499
H            1.40976422202737       -4.34139369064460       -1.91145144722317
H            5.99426681977281        6.62094186466329        0.74892101334337
H            5.45454276921920        5.07151012256068        1.38523817906195
H            5.60926307806746        5.31135053716081       -0.36262100224326
H            4.51601445720275        8.12965349273084       -0.45153100779132
H            2.80493436967935        7.77911604356374       -0.67551296479942
H            4.01192206522167        6.85871832364297       -1.56946094803131
H            3.59202715860520        6.22811285782904        2.66292829932263
H            4.30619163617842        7.73619353963101        2.08441316011770
H            2.58525760636473        7.43250794779287        1.86341199205661
