132
energy: -196.932342163899 gnorm: 0.004751383492 xtb: 6.7.1 (edcfbbe)
C           -1.26187831551313        0.34963985251135       -0.08794631040075
C           -1.18071942510911       -1.04906155440669       -0.25012220909168
C            0.04996541738682       -1.69658847814315       -0.33260362594546
C            1.23824948937236       -0.96916122840021       -0.33302449991891
C            1.22395296072831        0.44792434415106       -0.32030127726483
C           -0.04257515225182        1.04359799118538       -0.17489010067806
N           -0.09716785855337        2.39757913171473       -0.07740031699378
N           -2.38416518033738       -1.73413539768854       -0.23672490293769
N            2.48336285124723       -1.57609343926677       -0.31859883429584
C            0.98186586697537        3.23626469849216       -0.05019252971222
C            0.54154953825929        4.56923621210400        0.09292915802927
C           -0.90945595872483        4.51027230800544        0.10476356416875
C           -1.24074591200939        3.14023294666852        0.03731424206017
C            2.30902553996525        2.83013923314683       -0.13227741675202
C            3.22951428955929        3.86829444496681        0.08544246108495
C            2.85479087756417        5.19642675351305        0.25817428553089
C            1.49946924477017        5.55392776138726        0.22703725289831
C           -1.94392362151646        5.42256050176843        0.15986812033493
C           -3.26994328025650        4.96808322596434        0.12273727292108
C           -3.53654501021843        3.60315174761494        0.11945844545582
C           -2.52933063074110        2.62543338967344        0.13016698306335
C           -4.38566608725347        6.00612159188896        0.10444844763671
C           -4.20599048289220        6.90965813189004       -1.12436538866250
C           -5.78318416042995        5.38304702330592        0.02861521902864
C           -4.31343057948174        6.84903687404179        1.38575338296247
C            2.83642952782291       -2.90770767949271       -0.11391689890956
C            4.19927850451210       -3.04659612098910       -0.13726101819404
C            4.74840801241231       -1.74816316302670       -0.41993235402024
C            3.64330112090258       -0.85786628192648       -0.51207364537006
C           -3.46277627916020       -1.20713809867881        0.42921175672051
C           -4.39852415400461       -2.25157466270967        0.65358551341904
C           -3.85787706908330       -3.42833042729034        0.03223795389549
C           -2.66188210078540       -3.07105961510589       -0.55161075695354
C            6.02026660325212       -1.27688417288594       -0.62866125865605
C            6.19329437829317        0.06629195553754       -1.01566945282416
C            5.07010133382612        0.93991452160359       -1.12328947382815
C            3.76502911774544        0.50445636447656       -0.74551231757764
C            7.47759777043609        0.55797693182845       -1.33680253929415
C            7.64997839133376        1.82537587831507       -1.81457317818064
C            6.53316746482865        2.64745808635276       -2.02575372892998
C            5.28068089894231        2.21343851442367       -1.68887748506679
C           -3.65455397615259        0.11508660991727        0.80125387055753
C           -4.81675856322407        0.35768375627160        1.59165618570784
C           -5.76908571855295       -0.68048971284252        1.83243285231036
C           -5.55786631655719       -1.98272736257059        1.33931386250224
C           -5.03310940790131        1.60527299030549        2.21082031471357
C           -6.14984783756316        1.84829340535779        2.96114091059688
C           -7.11723519133916        0.84807949192911        3.13927463972648
C           -6.92179007943764       -0.38852095266822        2.59504388306003
C           -4.51160095762451       -4.73432126355691        0.11794103820007
C           -1.98121960377609       -3.74788694935432       -1.64835920908654
C           -2.03450258139080       -5.13175838864167       -1.82118146311468
C           -1.52030841139573       -5.72457782133270       -2.95933714780059
C           -0.91669840325756       -4.95950453001024       -3.94190484912257
C           -0.85360139752320       -3.58419807533947       -3.78363137981685
C           -1.39290184148303       -2.98410996061168       -2.66414368232161
C           -3.87822155656141       -5.77908365347524        0.79038255502575
C           -4.50592539111286       -7.00160955523294        0.93395063656608
C           -5.77901624424566       -7.19550213760843        0.42114546992676
C           -6.42442899147708       -6.15587105277669       -0.22674141836402
C           -5.79878221414086       -4.93076518875430       -0.37320419790829
C            4.97918736193294       -4.24773277705704        0.14737149367728
C            4.67423644467112       -5.48345748830803       -0.41818673297920
C            5.42248748684009       -6.60298790039941       -0.10694440042418
C            6.49283036457048       -6.50952180131855        0.76671304744257
C            6.80984606742813       -5.28374255713880        1.32773621701549
C            6.06108188228251       -4.16313301005659        1.02251554147730
C            1.91610733704910       -4.02148309356609        0.16487631333731
C            1.60865850232087       -4.35492595553269        1.48071498587999
C            0.86892642995893       -5.49082793918959        1.75781690317688
C            0.44643789221942       -6.31331202325173        0.72689878110306
C            0.74587229363007       -5.98397466131888       -0.58613934843021
C            1.46918226887409       -4.84107286929214       -0.86898902026490
B            2.49384200755680        1.31514939636882       -0.43198327414891
B           -2.57091756978085        1.07997439231541        0.27061170023593
C            3.88497136133943        6.29875316157202        0.47459792905344
C            5.32408648324312        5.77561108106450        0.51480704948767
C            3.78268614000464        7.31123268175679       -0.67535132658907
C            3.60166966502610        6.99882425646066        1.81177095501004
H            0.07311851920181       -2.77185844937438       -0.37835696083607
H            4.27137313714839        3.60362733586243        0.13927568727206
H            1.19711846949782        6.58470448079060        0.33494759283227
H           -1.72412743508131        6.47805722371313        0.21344773499576
H           -4.55769963471130        3.26116599277447        0.09248653379796
H           -5.00901845311581        7.64223087058131       -1.17229348817344
H           -3.26093957993816        7.44471312523966       -1.09232650189655
H           -4.22859783195495        6.31323669216392       -2.03430784879407
H           -6.52873038882172        6.17583991045969        0.00392306543403
H           -5.98643348084307        4.75896329289952        0.89578392508022
H           -5.89901182728714        4.78660467250308       -0.87366178969154
H           -4.43328757418391        6.21304426956215        2.26071824011069
H           -3.36223701330278        7.36753910537213        1.47006544706657
H           -5.10716632900618        7.59333729213601        1.38890990092302
H            6.88067252231341       -1.92480169721376       -0.54586034388689
H            8.32425621368199       -0.10360963263783       -1.21664712358054
H            8.63640537133108        2.18974367018088       -2.06149462549507
H            6.67010014636680        3.62329859342946       -2.46934095282115
H            4.41890007672856        2.82821877608935       -1.89471507551173
H           -6.29394421741236       -2.75306236466268        1.51997239166254
H           -4.27456708465777        2.36421355128783        2.10968072022064
H           -6.28827588727853        2.81111174610528        3.43211967214662
H           -7.99989569188132        1.05635598568020        3.72572645515956
H           -7.64306724306948       -1.17818242264282        2.75420816653973
H           -2.48573334918510       -5.75378428196973       -1.06754857547168
H           -1.59528400655929       -6.79644270685059       -3.07938753374420
H           -0.50716317103327       -5.42717473063580       -4.82471348041286
H           -0.39766412899122       -2.96979585275988       -4.54730627202680
H           -1.37612569437170       -1.90672748982996       -2.59113100032737
H           -2.89406551205714       -5.61767944089775        1.21101560240338
H           -4.00365581200252       -7.80518027516757        1.45309843283397
H           -6.26770275831098       -8.15195744702997        0.53270822296127
H           -7.42156952956458       -6.30062733794478       -0.61798898742775
H           -6.30127615599910       -4.12120921477000       -0.88269490569947
H            3.85322898032263       -5.56598800283816       -1.11327247072647
H            5.16948475276745       -7.55458765906167       -0.55214931800281
H            7.07634279287823       -7.38587576783638        1.00896923552181
H            7.64264483141517       -5.20325808838523        2.01127292694997
H            6.29949775738948       -3.21390102317819        1.48062066964869
H            1.96153662777243       -3.72542203448759        2.28522882305877
H            0.63994349209351       -5.74468321058198        2.78380717495040
H           -0.10872214486226       -7.21342037131756        0.94537166087662
H            0.43043533083926       -6.62725371943155       -1.39330012471434
H            1.69121900037629       -4.57855726477875       -1.89497094159238
H            6.00399194191387        6.60769331951540        0.68731681560503
H            5.46063803061501        5.05979547947538        1.32194743455672
H            5.60068683106882        5.30559753133489       -0.42579102787927
H            4.52436697880470        8.09728690913946       -0.54929423980271
H            2.80053569537615        7.77428865107364       -0.71312655772764
H            3.96295844741766        6.81669355015435       -1.62781777425784
H            3.65767479669100        6.28194107576730        2.62879132459211
H            4.33704878568351        7.78132837848491        1.98853062191830
H            2.61464672952586        7.45266636584643        1.82520121711749
