132
energy: -196.944485355556 gnorm: 0.004099222104 xtb: 6.7.1 (edcfbbe)
C           -1.25045112435996        0.35209067183350        0.24660220084526
C           -1.17872079678359       -1.04814242342532        0.07393147692040
C            0.04866615877094       -1.69693419509391       -0.02982182925402
C            1.23314707074231       -0.96904917289974       -0.08748118897013
C            1.22126302654840        0.44305953079575       -0.10846822569635
C           -0.03219292897035        1.04219555953745        0.11174842346857
N           -0.07089875492338        2.39692075995437        0.18985848997506
N           -2.38367091948073       -1.72642890078780        0.03882583952473
N            2.47399613859821       -1.57558059779400       -0.17876658293703
C            1.01352031137609        3.22553312208405        0.11140824301222
C            0.59416877460392        4.56439386733292        0.26145915829690
C           -0.85209636115482        4.51732646345151        0.39018647684501
C           -1.19860559307980        3.14971807054879        0.36388751472730
C            2.32479729010221        2.81316632487128       -0.10574685996620
C            3.26562398970996        3.85124315205863       -0.02033294419625
C            2.91355914278560        5.18427470879466        0.16414459163969
C            1.56373517510380        5.54663068556288        0.27207988590479
C           -1.87276579958393        5.43934672181527        0.50630981476874
C           -3.20122940580541        4.99477481973946        0.55603684060731
C           -3.48186788845364        3.63244362577025        0.54851118925121
C           -2.48677900991239        2.64336549629963        0.50636932313479
C           -4.30680883256362        6.04043094161468        0.64323199883112
C           -4.22037070423163        6.97307771746132       -0.57313862289925
C           -5.71054310808792        5.42808167414143        0.66795472188457
C           -4.12189392251782        6.84932324329522        1.93544576606737
C            2.84582081512747       -2.90305963667989        0.01704248696936
C            4.12350677308271       -3.09944746774925       -0.44697221799608
C            4.59404547747132       -1.83521283684284       -0.94188907789195
C            3.54601474033531       -0.90031886181476       -0.71706980129764
C           -3.52837490657690       -1.16913701451974        0.55984437998267
C           -4.55136182546718       -2.15833062465299        0.55613880451607
C           -3.97778472955074       -3.32932850916540       -0.05063603561529
C           -2.67218987002153       -3.02984906146189       -0.35420111972104
C            5.78216866958367       -1.40355924382451       -1.47702494852623
C            5.90023793162351       -0.05624038217873       -1.86973115380142
C            4.82695291008423        0.86262601137256       -1.65897954332438
C            3.64193557490955        0.46015695930705       -0.97267023592105
C            7.08212889361858        0.40157011860816       -2.49357420446091
C            7.19580362986445        1.68689971681021       -2.93971369613461
C            6.10930750988928        2.56518596604464       -2.81374057308529
C            4.95858738994891        2.15951504512690       -2.19592715178337
C           -3.70545760966950        0.13910284684296        0.98671577594790
C           -4.95257758133179        0.39867536182754        1.63028365039040
C           -6.00454792666428       -0.56615011054964        1.60135831772611
C           -5.80167696403193       -1.83425968542798        1.02147615487809
C           -5.16489320982910        1.58394937928448        2.36298755766147
C           -6.36990098622026        1.85529611548917        2.94998007755873
C           -7.43440718959654        0.94937745653187        2.83456689710955
C           -7.24732217089294       -0.23861548807852        2.18783712537929
C           -4.68682917859097       -4.57277512019918       -0.33245265754037
C           -1.75183402018954       -3.89908466412919       -1.08345770948564
C           -1.59545080291339       -5.22955552475251       -0.70214126031416
C           -0.79673509600857       -6.07772126060429       -1.44449766459817
C           -0.13190990698686       -5.60811133859840       -2.56495265642184
C           -0.27686943556435       -4.28471375020466       -2.94792747488561
C           -1.08921539821286       -3.43640680451978       -2.22076402907924
C           -5.48304619229291       -5.16330393416086        0.64579085623725
C           -6.15726406038866       -6.34218049844865        0.38534301762357
C           -6.04950368586440       -6.94803880390265       -0.85455125003176
C           -5.26722226604700       -6.36293709316094       -1.83743431903714
C           -4.59439574831716       -5.18465247040137       -1.58225539903669
C            4.91637907088936       -4.32454315303519       -0.39563848033948
C            5.56623199732676       -4.78159381184560       -1.54099250869038
C            6.32333397146836       -5.93780928630418       -1.50327194532373
C            6.45197752444659       -6.64614374147357       -0.31953924514248
C            5.81897875646642       -6.19223273126197        0.82705231930882
C            5.05510122483324       -5.04169754135481        0.79182805017484
C            2.04646078790057       -3.89128942090732        0.73443563136155
C            1.42867895922349       -3.56761452269254        1.94372901088926
C            0.74250531452684       -4.53054185761025        2.65645670375021
C            0.67836645007196       -5.83326131018642        2.18710459958780
C            1.30137658915636       -6.16471550055439        0.99626977100883
C            1.97415298145192       -5.20169874132189        0.26839077768612
B            2.47146819784892        1.29468917419295       -0.40474462117722
B           -2.55435209112905        1.09336375763121        0.60140904407029
C            3.96145180850400        6.28796710514770        0.24201010470776
C            5.39545877086492        5.76140321426344        0.13200219300106
C            3.73320950832238        7.27949017838106       -0.90805622367172
C            3.82631446362329        7.01244880372280        1.58890370613812
H            0.08207030473406       -2.77054619404951       -0.07512091339620
H            4.30631568059036        3.58261911400792       -0.08533763098253
H            1.27768930196404        6.58140912890435        0.38305965968851
H           -1.64270857629575        6.49347689921141        0.53882350065343
H           -4.50684685241766        3.30336616099685        0.56036987958442
H           -5.01240012118958        7.71806108660394       -0.53164797353316
H           -3.26766210198754        7.49402355561217       -0.61107381036782
H           -4.33257171073312        6.40130343278090       -1.49211913680558
H           -6.44957784465741        6.22500626968626        0.72725165910256
H           -5.84482236045988        4.78156903340669        1.53190445291388
H           -5.90651628668537        4.85653160067941       -0.23628584886620
H           -4.17059000779714        6.19000957261347        2.79994745388852
H           -3.16332628922706        7.36081367097862        1.95214746104973
H           -4.90744990628497        7.59668244233330        2.02671167934245
H            6.61337886444251       -2.07931902545630       -1.61629693587686
H            7.89508440538969       -0.29917616139549       -2.62445755003261
H            8.10595531954761        2.02566376715604       -3.41269805831364
H            6.18587892559105        3.56384373086329       -3.22013681966399
H            4.11077572484865        2.82317294014940       -2.14050038435332
H           -6.62067954985186       -2.53700100662675        0.97371105003174
H           -4.33494785929649        2.26094971070066        2.48732276387891
H           -6.50678699152501        2.76501897467918        3.51735567255636
H           -8.38821529803761        1.18520587777575        3.28331722374761
H           -8.04696730899420       -0.96407627189776        2.13265297734613
H           -2.10280215282180       -5.59122277987569        0.17967633668686
H           -0.69482959368054       -7.11054476879000       -1.14813815889350
H            0.49564170040689       -6.27145468978390       -3.14162855670176
H            0.23708913536568       -3.91434354932813       -3.82306694508367
H           -1.21699208322584       -2.40919348643473       -2.53206390207173
H           -5.55367470271905       -4.70382386139653        1.62076238001364
H           -6.76785905260842       -6.79209485631715        1.15589089703387
H           -6.57347755175651       -7.87056471191818       -1.05584727202727
H           -5.18540512511129       -6.82677312755102       -2.80955084452566
H           -3.99610230212085       -4.72418710403394       -2.35603772277439
H            5.45945352507859       -4.23116414419696       -2.46662043126835
H            6.81840687580745       -6.28670633340105       -2.40156765842692
H            7.04606145970250       -7.54779422809328       -0.28990081690546
H            5.92287822425091       -6.73872832941188        1.75552966423710
H            4.56507723751732       -4.68651261934672        1.68830231573313
H            1.49645905556839       -2.55800158387100        2.32389557032800
H            0.26416415799753       -4.26751527211624        3.58881420542293
H            0.14797131113084       -6.58588038673250        2.75120050282257
H            1.26658141756014       -7.18034829597517        0.63213912296202
H            2.44615721637245       -5.45957391043949       -0.66741831636426
H            6.09138594801945        6.59576630755607        0.19960955106498
H            5.62329133984136        5.06927029508944        0.93957338205744
H            5.56161588519683        5.26252587069562       -0.82004622203737
H            4.46667469998050        8.08207582334312       -0.86216671147435
H            2.74227902012929        7.72315833236448       -0.86269970671372
H            3.83542638473431        6.77297800517649       -1.86580032265135
H            3.96723844044202        6.30989950882941        2.40803497619837
H            4.57844100800713        7.79453689804041        1.67211130590781
H            2.84745329076858        7.47106141521744        1.69942749413094
