132
energy: -196.933941388467 gnorm: 0.004897218507 xtb: 6.7.1 (edcfbbe)
C           -1.25291026488053        0.34076218601188       -0.02661023389972
C           -1.17476778756227       -1.05434488442293       -0.22130598247029
C            0.05262160444896       -1.69783852249670       -0.34296344329809
C            1.24198087180137       -0.97419840039938       -0.32791285379255
C            1.23235557358157        0.44168549984540       -0.29523341240365
C           -0.03349310077249        1.03470133574526       -0.12735360108312
N           -0.08601177640918        2.38795321662469       -0.02666558154055
N           -2.37592071629918       -1.74201743216187       -0.20909908475557
N            2.48327398607365       -1.58582947728083       -0.33266488054267
C            0.99347999289692        3.22673506344142       -0.03142879682015
C            0.55301794429609        4.56089543815791        0.10153137267690
C           -0.89710902820159        4.50000252985408        0.14728203039672
C           -1.22857006941003        3.12897232085704        0.10392587329459
C            2.32058434061260        2.82215613096828       -0.13337184163777
C            3.24098425856199        3.86675493110562        0.05570413818134
C            2.86610070365556        5.19699892972583        0.21168811254516
C            1.50967241819270        5.55051465411635        0.19947388377745
C           -1.92953766267329        5.41289672082406        0.21741426994475
C           -3.25533376469345        4.95722759121279        0.22375654798237
C           -3.52130718236808        3.59206861052430        0.23516330934062
C           -2.51503139863153        2.61292839938136        0.22596300413179
C           -4.37017514535900        5.99584981174188        0.24084211336196
C           -4.24044574120750        6.89265430154698       -0.99890973505301
C           -5.76995630958941        5.37398816089807        0.22683434392258
C           -4.24363563603409        6.84648146009503        1.51308496643805
C            2.82749418129992       -2.92431533300711       -0.14379518661016
C            4.18567115222956       -3.07808101851561       -0.23939432978355
C            4.73247390588372       -1.78251334817619       -0.54578685418876
C            3.63756520547414       -0.87681620176501       -0.57541012516963
C           -3.45630372938749       -1.22532004441976        0.46364283384136
C           -4.39238535432928       -2.27433323545675        0.66462604178922
C           -3.84857859799617       -3.44010267671672        0.02717749680463
C           -2.64768608400971       -3.07692334923790       -0.53560067913695
C            5.99824198367319       -1.32792578352150       -0.81626059376240
C            6.17067963571653        0.01867214147031       -1.18955966735267
C            5.05754610097690        0.91243510323612       -1.22302139264306
C            3.76237097477493        0.48849586992681       -0.79617056591560
C            7.44678585547113        0.49385604611406       -1.56511632457030
C            7.62208661595633        1.77098577618512       -2.01431153543226
C            6.51290866346103        2.61965181789550       -2.14310617020640
C            5.26863853236085        2.19782806412829       -1.76212846025809
C           -3.65024160930135        0.09017727138054        0.86086989130458
C           -4.82183004139724        0.31409089117347        1.64547776143273
C           -5.77695143487043       -0.72925989057408        1.85531063922454
C           -5.55995586473403       -2.02157312369863        1.34100597873026
C           -5.05217578811846        1.54881307736604        2.28661492483616
C           -6.18291874909528        1.77602365134785        3.02190105704843
C           -7.15121624949966        0.77167016926827        3.16752908576404
C           -6.94188320077274       -0.45492266520447        2.60660413196912
C           -4.53685789955547       -4.73361141515765        0.04823486917888
C           -1.92867297676817       -3.77190405235057       -1.59505227413177
C           -1.90475405871649       -5.16286116587201       -1.68470403388385
C           -1.32444376486910       -5.78888999987320       -2.77199311447697
C           -0.73439869395725       -5.04679504772281       -3.78032479100869
C           -0.75804691499645       -3.66383312168765       -3.70753776145571
C           -1.36160946711059       -3.03298105543006       -2.63912042010960
C           -4.02912582558600       -5.78156588979419        0.81316194169018
C           -4.71115798889775       -6.98128281852207        0.89573168930210
C           -5.90966624120947       -7.14826191840267        0.22185352278269
C           -6.42766596425713       -6.10601979270747       -0.52914909744092
C           -5.74983068053634       -4.90317420275081       -0.61072796455532
C            5.00145977335321       -4.25867901707912        0.03845824312654
C            4.75349569418073       -5.50620384955405       -0.52703849261522
C            5.56310001526357       -6.58712493348563       -0.23066312364190
C            6.63836840112508       -6.44290060020921        0.62918640561183
C            6.89762714436820       -5.20542556801790        1.19426313864099
C            6.08832453248704       -4.12453290352130        0.90305515146809
C            1.88150082560754       -3.98487925488490        0.23041232504009
C            1.38209049567077       -4.04907368837427        1.52915380651212
C            0.55467160534728       -5.08993787753135        1.90672932917944
C            0.24333183214370       -6.09524730722524        1.00521231825406
C            0.74009902232670       -6.04029362562985       -0.28427754853648
C            1.53900073566687       -4.98205955418976       -0.67741251443611
B            2.50372344189850        1.30493283219182       -0.43195239327919
B           -2.56024076225957        1.06481478243023        0.35414914534950
C            3.89470353801600        6.30751020278456        0.39076845397635
C            5.33745577299613        5.79325389687582        0.40988529156182
C            3.76467252177461        7.30290911643890       -0.77156863915437
C            3.63270998916657        7.02655556189960        1.72216075657498
H            0.07475601365865       -2.76862441813661       -0.43392454456245
H            4.28464566358226        3.60648834583317        0.10186930577211
H            1.20567092036416        6.58190071760685        0.29425478473707
H           -1.70805814356185        6.46871854694330        0.25079734753891
H           -4.54344012784507        3.25205080964282        0.23491017797054
H           -5.03937486300638        7.63127133091743       -1.01250612303488
H           -3.29109321401353        7.42075530156512       -1.01257947609145
H           -4.30953022366753        6.29324290142864       -1.90443911358789
H           -6.51508585840001        6.16759406553844        0.22699449815698
H           -5.93764073012361        4.75652756434845        1.10630311372404
H           -5.92354657208638        4.77137128857402       -0.66520925137031
H           -4.30882242553809        6.21383096336092        2.39598324065440
H           -3.29663981175104        7.37831002405638        1.54505085375510
H           -5.04618125410765        7.58023096673891        1.55414926322649
H            6.85089347743166       -1.99050227416444       -0.78716247958973
H            8.28312760610033       -0.18885784546157       -1.50754839319604
H            8.60222831716393        2.12334511223835       -2.30100751269400
H            6.64874454808364        3.60762797095967       -2.55957233769482
H            4.41115597049831        2.83424957690146       -1.91061283737158
H           -6.29535856191430       -2.79790841744889        1.49629497228891
H           -4.29369554992324        2.31125147518552        2.21343941117024
H           -6.33291005254840        2.73064717939084        3.50643869154364
H           -8.04481901991721        0.96764103261213        3.74193801915070
H           -7.66097736373171       -1.25115733513277        2.74022992236045
H           -2.34634745667530       -5.75929489567169       -0.90400671116385
H           -1.33415541798363       -6.86765725295052       -2.83238821695331
H           -0.26935196683791       -5.53988464272263       -4.62029491165940
H           -0.31692637663792       -3.07050834377918       -4.49535100305591
H           -1.40961300613140       -1.95435572052221       -2.62225182349877
H           -3.10264555437297       -5.64118172596115        1.35429776961359
H           -4.31120794639421       -7.78841247877262        1.49289915285361
H           -6.44100275654021       -8.08611892795312        0.28813201154590
H           -7.36622041705756       -6.23018948712942       -1.04983502537123
H           -6.15299093999105       -4.08761837311443       -1.19378779337464
H            3.93235260814119       -5.63048119944703       -1.21427357142230
H            5.35531789172571       -7.54799566956272       -0.67941950693780
H            7.27174854499218       -7.28743469603220        0.85632473311136
H            7.73429910007944       -5.08408118571978        1.86773453469565
H            6.28403419919977       -3.16635196592536        1.36217041217824
H            1.64243818757044       -3.27522173950619        2.23910978692219
H            0.15640745981374       -5.11926584984023        2.91346915461398
H           -0.38622238957245       -6.91936202683700        1.30895610411819
H            0.50787803541444       -6.82351280842496       -0.98742501733601
H            1.87858963903440       -4.91206509325719       -1.70040662713807
H            6.01612050032474        6.63440554445557        0.53979326218286
H            5.49880917357812        5.10285194334980        1.23435886415136
H            5.59300690835150        5.29710900350565       -0.52321883684262
H            4.49990084742696        8.09851465043172       -0.66701721082582
H            2.77746526539191        7.75567393767642       -0.80129873343578
H            3.93620542082472        6.79747798109621       -1.72003829577198
H            3.69088234825523        6.31991942528145        2.54763254799249
H            4.37703173588174        7.80437450432589        1.88096829755506
H            2.65018130098641        7.48991269171546        1.73963842414395
