132
energy: -196.935124596139 gnorm: 0.002206518711 xtb: 6.7.1 (edcfbbe)
C           -1.26136084685246        0.33572926459930        0.00085798298026
C           -1.18461430051531       -1.05987702711318       -0.19061911579263
C            0.04176569463061       -1.70596669887294       -0.31266535119368
C            1.22802052888918       -0.97840862296208       -0.32881672145889
C            1.21605898125243        0.43639680741123       -0.31671001857058
C           -0.04437905277332        1.03028529378601       -0.11980895926421
N           -0.09187167752681        2.38313289925741       -0.01509581400117
N           -2.38379609495769       -1.74793107860732       -0.17977157778051
N            2.46866763803046       -1.58763641278581       -0.35621499828338
C            0.98917072235699        3.21900656614387       -0.04386893376597
C            0.55777282138941        4.55250276886382        0.11903095308703
C           -0.89065255226325        4.49471896869857        0.20985379775140
C           -1.22767139791288        3.12549218058189        0.15676147422027
C            2.31062324884040        2.81323499648455       -0.20183374536778
C            3.24081676972636        3.85301282390938       -0.04492319262208
C            2.87520070314630        5.18179536798591        0.14412881618420
C            1.52068145565195        5.53846804409975        0.19208893719328
C           -1.91836795514296        5.40921117496201        0.32193038469655
C           -3.24461688416632        4.95666518605160        0.35628133389639
C           -3.51543081665585        3.59221378165141        0.34712408579405
C           -2.51296019500801        2.61059296497075        0.29793281401076
C           -4.35631945606514        5.99755232893724        0.42332865317325
C           -4.26136939399675        6.91265975233338       -0.80610664484348
C           -5.75686754762744        5.37793267573790        0.44264707118263
C           -4.18962861378975        6.82744633141029        1.70458303233416
C            2.82036674045124       -2.91957027467635       -0.14299291800313
C            4.17015595488110       -3.07903130235380       -0.31348483711044
C            4.70411039540975       -1.79251471591497       -0.67442890969922
C            3.60900942059664       -0.88590087023108       -0.67048443968257
C           -3.47638058453875       -1.22587768196014        0.46746551041641
C           -4.43451155249579       -2.26376943689590        0.62329093010582
C           -3.88498125337384       -3.42750396563347       -0.01423843180624
C           -2.65845935034528       -3.07545974951766       -0.52139567991267
C            5.96006418217803       -1.33824815586765       -0.98891963584099
C            6.11723577588800        0.00596113234761       -1.38014821205480
C            5.00085834362271        0.89606121166749       -1.39172191257898
C            3.72287427408050        0.47580870922634       -0.91412702662830
C            7.38048641299797        0.48659967662674       -1.79075284817029
C            7.53571729001769        1.76020322037218       -2.25769915870215
C            6.41813723298702        2.60042975306666       -2.37196684196949
C            5.18753497693428        2.17594213290335       -1.95223069578637
C           -3.65936577671304        0.08430935220734        0.88570808776956
C           -4.83626523209998        0.30728942521074        1.66175006979292
C           -5.81592951858446       -0.72125605511705        1.82296465810153
C           -5.61489463772592       -2.00286051156501        1.27415239707359
C           -5.04021131772291        1.52215691217044        2.34747178567640
C           -6.17173636613884        1.75011841694503        3.08075303349094
C           -7.16777238990527        0.76647408756724        3.17346643783180
C           -6.98387715202092       -0.44319059055064        2.56786471596733
C           -4.58513653471261       -4.71474375804195       -0.07877912037023
C           -1.88820155491952       -3.79240374197205       -1.53152224043921
C           -1.78157736277051       -5.18189330798338       -1.53351109556496
C           -1.14134188135215       -5.83674334939130       -2.57003424544810
C           -0.58106092353209       -5.12160225852811       -3.61371279019505
C           -0.68349154099538       -3.73914923527002       -3.62461399448864
C           -1.33975379445449       -3.08132464320821       -2.60400408435063
C           -4.16749001492502       -5.78033986328395        0.71398594694819
C           -4.84847672402302       -6.98351608175555        0.68385144125297
C           -5.95931142700632       -7.13393687383932       -0.13038910370378
C           -6.39176576855243       -6.07237307965306       -0.90692916924610
C           -5.71250633216420       -4.86729103643874       -0.87823377242412
C            4.98489997018668       -4.26547523619608       -0.05618916496940
C            4.73257163879101       -5.49506583181936       -0.65601110184739
C            5.52845036033422       -6.59036368674276       -0.37475809569564
C            6.59238853576911       -6.47475176223498        0.50290656310660
C            6.85996041783523       -5.25202607366965        1.09622070121828
C            6.06527122752922       -4.15660492948070        0.81842750435439
C            1.90368157200766       -3.93593414807698        0.39282318617684
C            1.47958897215297       -3.83446445832511        1.71635194151290
C            0.68345204965389       -4.81831834484140        2.27180136636195
C            0.31756932544409       -5.92378705996565        1.52033524216009
C            0.72905054329352       -6.02690883381787        0.20335948939085
C            1.50648472023501       -5.03373523659697       -0.36364762893717
B            2.48155731285984        1.29690263732812       -0.50635403398745
B           -2.56242050690299        1.06039450709885        0.39982057107615
C            3.91498629913574        6.28680417649729        0.28996293336536
C            5.35401086917875        5.76300494544991        0.26002405333337
C            3.74830958869505        7.28214815642225       -0.86748084765967
C            3.70382081343639        7.00583737924142        1.63034847270380
H            0.06701589226633       -2.77883152866435       -0.38320679709778
H            4.28437833980801        3.58960997516269       -0.05359294903356
H            1.22526625169068        6.56990321726570        0.31057104983255
H           -1.69475547519237        6.46421943222001        0.36539953269282
H           -4.53812836362818        3.25477592451661        0.36264367218200
H           -5.06240468596562        7.64899029822445       -0.78886312312018
H           -3.31398006314822        7.44355694288445       -0.83655112430162
H           -4.35201420794881        6.32580122558727       -1.71798848631472
H           -6.50057637979367        6.17141376530127        0.48929949459567
H           -5.89431371516369        4.73811093273397        1.31120434082179
H           -5.94226820779696        4.79798369597415       -0.45871146853276
H           -4.24313426929804        6.18185234966100        2.57904758100194
H           -3.23514536959982        7.34633000929493        1.72334386143891
H           -4.98103927736894        7.57078561119524        1.77551198169196
H            6.81626600940428       -1.99703577182772       -0.97319992324037
H            8.22446922656737       -0.18769569670810       -1.74482657414769
H            8.50708011716912        2.11627391464722       -2.56870624710930
H            6.53638171055904        3.58306645496479       -2.80609186393691
H            4.32173489597878        2.80539023765197       -2.08379622554807
H           -6.37161566322074       -2.76566730745428        1.39062739805455
H           -4.25891934515437        2.26418227056374        2.31339340583507
H           -6.30054285370657        2.68664851880277        3.60483106173196
H           -8.06281785940866        0.96369782500838        3.74506049889300
H           -7.72608273945308       -1.22372804812080        2.66467874324556
H           -2.20082598951197       -5.75239919891611       -0.72165420687837
H           -1.08080113188925       -6.91583761199031       -2.56217313321374
H           -0.07489489964390       -5.63619813832518       -4.41757367636098
H           -0.26070285996200       -3.17073010677945       -4.44034890389426
H           -1.44130833173207       -2.00608836485769       -2.64339497288479
H           -3.31202070387701       -5.65359820561015        1.36460618681345
H           -4.51457029939676       -7.80587950862909        1.30030468528260
H           -6.48983932119706       -8.07471489443913       -0.15452375921522
H           -7.26329344835779       -6.18350927422930       -1.53626984452264
H           -6.04796011204833       -4.03735094085824       -1.48331319893446
H            3.92199245357320       -5.59071640041480       -1.36053614955125
H            5.31922343233151       -7.53904793259317       -0.84790585291366
H            7.21280045643983       -7.33165195386832        0.72093160254928
H            7.69021876699777       -5.15329609680888        1.78067068272219
H            6.26683584270157       -3.20697548874043        1.29306041334240
H            1.77927040951021       -2.97979144487938        2.30535874867575
H            0.35813960989277       -4.72888686508452        3.29865997788449
H           -0.28987949297427       -6.70140468984059        1.96005496507511
H            0.44582320916588       -6.88546823622112       -0.38681589884755
H            1.78335708487772       -5.09560469682492       -1.40620885190576
H            6.04312040050583        6.59673607000386        0.38104903439806
H            5.53304154941956        5.06032225075401        1.07069238707865
H            5.57853848222841        5.27691224316041       -0.68630096683298
H            4.49851684297950        8.06730551851983       -0.79867091021396
H            2.76681355548326        7.74830505973072       -0.85348228488653
H            3.86924076608402        6.77197547314503       -1.82116103680797
H            3.79874327271727        6.29959398082731        2.45298436591404
H            4.45037172003246        7.78722315517471        1.75873436813713
H            2.72073727081193        7.46470202120637        1.68838912437396
