132
energy: -196.926983416230 gnorm: 0.007137187518 xtb: 6.7.1 (edcfbbe)
C           -1.30631981719562        0.35560671438718       -0.19014493114585
C           -1.22807261070840       -1.04795931752982       -0.30040697355541
C            0.00186300923042       -1.70742262939300       -0.28843255419222
C            1.20212092539395       -0.99710468275107       -0.30016678888765
C            1.18794605827831        0.42296481677624       -0.33964229938674
C           -0.07758489990458        1.03450577592114       -0.24989330964416
N           -0.12881104337742        2.39337438985075       -0.19315752363455
N           -2.43820068827066       -1.72617588665503       -0.32247825769924
N            2.44948039929854       -1.61385367766394       -0.25165372439935
C            0.95422686333744        3.22600772607059       -0.12580256163433
C            0.52367733086795        4.56201467632266        0.01317863837825
C           -0.92886107465986        4.51490710212863       -0.01586141911801
C           -1.26881691219707        3.14698474497957       -0.10031401924127
C            2.27969290410546        2.80905658678938       -0.16249470969586
C            3.20192920454557        3.83664246137642        0.09333003859872
C            2.83561705399045        5.16646600328378        0.27620095600237
C            1.48481875402892        5.53591366371110        0.20120968348623
C           -1.95364552298985        5.43895005291063        0.03456731379583
C           -3.28538604660412        5.00166164052847       -0.02070223128751
C           -3.56214256312822        3.63777000568309       -0.04451779198363
C           -2.56584051263767        2.64713855134742       -0.03075029673242
C           -4.39158825535755        6.05156812768851       -0.01169388829859
C           -4.20200301730267        7.00930986868484       -1.19758589113891
C           -5.79563659779902        5.44780305069785       -0.12050024802007
C           -4.32205601403832        6.84578320449396        1.30149965736800
C            2.82899470745452       -2.93413661588309        0.01527512377030
C            4.19695602434050       -3.03839617174927        0.05645088997494
C            4.72826047472409       -1.74347890327983       -0.26048413278047
C            3.60886050668759       -0.88188876192838       -0.42523051195126
C           -3.51098898057143       -1.18313506324678        0.34496261002261
C           -4.44050539763135       -2.22340053649465        0.61230165999233
C           -3.91956029046942       -3.41253291173439       -0.00780735874311
C           -2.74247962818610       -3.06034088380487       -0.64362503752230
C            6.00065154690811       -1.26704828108069       -0.45228635304334
C            6.17206209643231        0.06003822028224       -0.89003823562658
C            5.04101483753994        0.91287115884723       -1.05528674591863
C            3.73182463985008        0.47264972163402       -0.69827968576312
C            7.45787794743502        0.55424826815742       -1.19790043466426
C            7.62626271721572        1.80739760504929       -1.71450525759506
C            6.50498116131701        2.60801399363066       -1.97711276145080
C            5.24907639243697        2.17031194094543       -1.65591018657294
C           -3.69461277652460        0.14752326617591        0.68890038184105
C           -4.83787590993129        0.41074672369009        1.50021071105697
C           -5.77536191499630       -0.62469359337688        1.79998083708547
C           -5.57296343536654       -1.93937283153240        1.33620917729887
C           -5.04267952213622        1.67503575931636        2.08801007346578
C           -6.13678461789848        1.93366090278962        2.86648758397701
C           -7.09157219615389        0.93407489455599        3.10414558451752
C           -6.90536495095256       -0.31713396562418        2.58984019104892
C           -4.54020574572408       -4.72236371740137        0.17331236026980
C           -2.11362677753414       -3.72166877170632       -1.77956162945421
C           -2.41958868568932       -5.04239245415204       -2.12793182170890
C           -1.90019952810543       -5.61969760706369       -3.27078157806276
C           -1.05574772473222       -4.90585373047843       -4.10634027591041
C           -0.78145424382794       -3.58273156406892       -3.80345168387123
C           -1.31583026594002       -2.99445196734998       -2.67394039831884
C           -3.77877168226347       -5.77866446039196        0.68249087675647
C           -4.36089972460652       -7.00168956372814        0.95339205613227
C           -5.71652664195362       -7.19422784063830        0.73421232234562
C           -6.48151229743493       -6.15196315044872        0.23653693915506
C           -5.90198338371585       -4.92606980835358       -0.03981135098378
C            5.01884410863844       -4.21581188946590        0.32945740414205
C            4.77640263661769       -5.44773829909288       -0.27489849205565
C            5.60325257066829       -6.52749115800843       -0.02601368251287
C            6.68653425448122       -6.40286896012368        0.82928208376960
C            6.93016035502559       -5.18605451022919        1.44326395005779
C            6.10659674610468       -4.10361950691181        1.19540284655128
C            1.97677955547019       -4.11316141266459        0.20738299188611
C            2.07489742154297       -4.82580945229166        1.40184569557088
C            1.40954653911732       -6.02792062833066        1.55879362304607
C            0.64453071306441       -6.53924479183261        0.52286684193147
C            0.55408807456524       -5.84432766778789       -0.67422093320031
C            1.21872884496476       -4.64278975009144       -0.83687741652444
B            2.45740588030549        1.28992253098238       -0.43875044354900
B           -2.61707180943319        1.10260744755194        0.12742867784901
C            3.86855408400853        6.24973165491636        0.56556806857051
C            5.30135281419386        5.71081903345662        0.63068465840431
C            3.81585642207429        7.31373349475897       -0.54067089388204
C            3.55214752424905        6.90158846975816        1.91996732234206
H            0.00306634049582       -2.78330307617629       -0.25807588841816
H            4.23935291860236        3.56002548114109        0.17339793118162
H            1.18601291328759        6.56663917730268        0.31933366713036
H           -1.72066779947402        6.49090672646327        0.10451204269833
H           -4.58671606297380        3.30595308326152       -0.08525540951752
H           -4.99805581278765        7.75166202721920       -1.20555457106223
H           -3.25247503604832        7.53444211672574       -1.14210485503270
H           -4.23426518877933        6.46042814064052       -2.13649733530655
H           -6.53047842248602        6.25102791926561       -0.12234913520878
H           -6.01514100992104        4.79660009510923        0.72236655461720
H           -5.91206697513525        4.88566301650920       -1.04431415011621
H           -4.44198124375560        6.17977358825158        2.15363139465926
H           -3.37261158138094        7.36412202421606        1.40502279128335
H           -5.11812369632276        7.58756243805994        1.32943678899985
H            6.86478530461513       -1.90109533551307       -0.31931345859731
H            8.30883764740832       -0.09250918846661       -1.03576014486746
H            8.61406362406925        2.17508413612786       -1.95014463690113
H            6.63935773198837        3.57155976417777       -2.44765925720900
H            4.38758476739532        2.77194444249663       -1.89960590542999
H           -6.29797189424865       -2.70393200336182        1.57407318201372
H           -4.29413610482807        2.43603504446285        1.94132286134577
H           -6.26499954154548        2.90937642375033        3.31329612231110
H           -7.95729308187665        1.15398220546249        3.71144986760011
H           -7.61744796916682       -1.10474918547716        2.79387098333395
H           -3.08283396410810       -5.62969697633687       -1.51377336102133
H           -2.16223084371781       -6.64092352747710       -3.51040602396903
H           -0.63664417864221       -5.36594131996032       -4.98844451657724
H           -0.15434522855412       -2.99403719685916       -4.45896767892732
H           -1.12061974164400       -1.94728262647450       -2.50655009787775
H           -2.72399371542776       -5.63024665047120        0.87226587211378
H           -3.75469664610780       -7.80728344034833        1.34336199811985
H           -6.17227115698247       -8.14824439645898        0.95327129427486
H           -7.53919698069961       -6.29435096200063        0.06382706330928
H           -6.50727009069486       -4.12620256660055       -0.44234322541839
H            3.94507922934924       -5.55839953274945       -0.95576274438529
H            5.40434244836543       -7.47329519536625       -0.50930254420667
H            7.33505312575547       -7.24635208613661        1.01588348731714
H            7.76766102146702       -5.07887901194615        2.11841413956992
H            6.29777598035016       -3.16313580597994        1.69221673873705
H            2.68534587214307       -4.43766900892793        2.20439503752822
H            1.50057493531096       -6.57252901247880        2.48831888635480
H            0.13219800061420       -7.48265666740224        0.64053276705566
H           -0.02494766680331       -6.24349989544974       -1.49381533484081
H            1.16930740460894       -4.12669516296502       -1.78617239416796
H            5.98397839850226        6.53317964616662        0.83734274242308
H            5.41108135111635        4.97791876643587        1.42678187488891
H            5.59815879816567        5.25709957237688       -0.31179662651465
H            4.56812077983895        8.07858858569366       -0.35684167320907
H            2.84441361252181        7.79863760239574       -0.58305179418472
H            4.01453775659596        6.86118885955712       -1.51014804901758
H            3.57695407284419        6.15602793819151        2.71216799164421
H            4.29101113877736        7.66825012224586        2.14530618270448
H            2.57018606735927        7.36681401388096        1.92117743967045
