132
energy: -196.935742781857 gnorm: 0.001389851968 xtb: 6.7.1 (edcfbbe)
C           -1.23976931160833        0.32106381698997        0.09589743897336
C           -1.16632689930361       -1.07266648703873       -0.11094503044378
C            0.05892758984121       -1.71746510735671       -0.24264254152068
C            1.24373479512681       -0.98820481345205       -0.26231908661001
C            1.23380577455910        0.42558624815353       -0.25273891730913
C           -0.02441993293426        1.01709742348093       -0.03591364197133
N           -0.07157835383075        2.36955832765310        0.06609239608003
N           -2.36678538917123       -1.75726866698059       -0.11870093300084
N            2.48245203581040       -1.59676039570722       -0.30982758823704
C            1.00699668407765        3.20660832498609        0.00219097864725
C            0.57411375762456        4.54061551813361        0.15985038432213
C           -0.87161935527792        4.48039766876462        0.28793226993710
C           -1.20573203991314        3.11024494769443        0.25260811075314
C            2.32585635411328        2.80361778822017       -0.18823020539543
C            3.25442894418380        3.85157412271508       -0.07858198125395
C            2.88703226233219        5.18230234502014        0.09315473184024
C            1.53309554004368        5.53230308779468        0.18471024733748
C           -1.89939218442800        5.39282914668793        0.41782120520328
C           -3.22314151012798        4.93651716005006        0.48154658119299
C           -3.49091570997658        3.57163300659951        0.47707482652693
C           -2.48763599164775        2.59261466861746        0.41291771050188
C           -4.33731352458679        5.97114125995265        0.58662783979437
C           -4.26891133651364        6.91756232666645       -0.62013160929235
C           -5.73506536583624        5.34528701670285        0.61398429693910
C           -4.14929366870324        6.76752201883149        1.88606857820654
C            2.83160949259228       -2.92854375156992       -0.09250416231531
C            4.16743464741968       -3.10341303400613       -0.33931545165377
C            4.69208814063690       -1.82554230901421       -0.74443140755721
C            3.60880315594413       -0.90615932832533       -0.68641816627723
C           -3.47364784370481       -1.23564695561586        0.50394633950717
C           -4.45529598247680       -2.26007484950488        0.59249214769153
C           -3.90049655785209       -3.41348315142688       -0.05935859109248
C           -2.64878396959721       -3.07034573887307       -0.50188816401554
C            5.93103098998134       -1.38728501945929       -1.13796621743855
C            6.07687801123003       -0.04669734079562       -1.54628921258793
C            4.97435897123185        0.85988000042386       -1.48627063353385
C            3.71907754822205        0.45497951968693       -0.93817821165028
C            7.31509422207052        0.41225913140612       -2.04785757342060
C            7.45916505219102        1.68307265279187       -2.52572437787324
C            6.35323447089399        2.54495622535266       -2.55324235890563
C            5.14725003910362        2.14012384560248       -2.05049019858110
C           -3.65237430069394        0.06607533786097        0.94966096741004
C           -4.85275988616232        0.28636006934855        1.68969811465122
C           -5.85829531587635       -0.72579742824803        1.77740865581043
C           -5.65833705587024       -1.99410203738496        1.19809549880328
C           -5.05872609613079        1.48203377116664        2.40779505038508
C           -6.21774445580757        1.71380396451983        3.09562339595370
C           -7.23952598819578        0.75268060800908        3.10841856095765
C           -7.05340857815828       -0.44296614847761        2.47631874155378
C           -4.62402789194391       -4.68045871931283       -0.22029261133346
C           -1.83576988535400       -3.79786095206920       -1.47102252940987
C           -1.67825473257013       -5.17968649113399       -1.40780382490086
C           -0.97800199057331       -5.85037326667964       -2.39438735898355
C           -0.41820791625943       -5.15659580063739       -3.45292326598059
C           -0.57621942410474       -3.78177280082360       -3.52959185603711
C           -1.28450529494729       -3.10854668492042       -2.55495595947608
C           -4.33971354501153       -5.76295372556092        0.60696168797919
C           -5.05061779711490       -6.94292632002349        0.48372968020059
C           -6.05682501814978       -7.05255994576964       -0.46232282050429
C           -6.35282641086125       -5.97558516518778       -1.28102591389141
C           -5.64360086111030       -4.79390233764729       -1.15899060807297
C            4.98054924845161       -4.29989054293291       -0.12399227616285
C            4.69757116683474       -5.51305181535491       -0.74258391558996
C            5.48700031673478       -6.62322907557292       -0.50535251157624
C            6.57461609697402       -6.53732900269971        0.34644799569148
C            6.87458405816733       -5.32979920460655        0.95502941944812
C            6.08664799738279       -4.21929044210583        0.72034585227116
C            1.92850101220405       -3.88754834203085        0.55633367787011
C            1.53606521583123       -3.63904477825283        1.87149077063047
C            0.72942551617631       -4.53710017143680        2.54266615592838
C            0.31547960533482       -5.70169516500597        1.91631965298355
C            0.69989926837152       -5.95448893071316        0.61122610233059
C            1.49402891898666       -5.04977527843695       -0.07066167591819
B            2.49545775073434        1.28359042955471       -0.48248302731008
B           -2.53954862982322        1.04229703983567        0.50265868706137
C            3.92161178982563        6.29852636832558        0.17834887578926
C            5.36233610520637        5.79172444974267        0.06501127277270
C            3.68157646144169        7.29322903709188       -0.96673142528129
C            3.77535887260547        7.01397344326415        1.52917505598435
H            0.08585907249616       -2.78933991810624       -0.32345539883622
H            4.29924974276532        3.59435707454581       -0.11163323272538
H            1.23543907738798        6.56363583163834        0.29719786628374
H           -1.67795479677684        6.44861524803560        0.45351864886771
H           -4.51212449945489        3.23199134663762        0.50920823154946
H           -5.06475832917384        7.65724290823569       -0.56175921157601
H           -3.31995780316978        7.44474721895920       -0.66252733344807
H           -4.38767126805848        6.35548732163453       -1.54419545215381
H           -6.48170391246742        6.13493023606582        0.67528016063662
H           -5.86162229513328        4.69687699649316        1.47777362903854
H           -5.92684769551241        4.77273862570719       -0.29062051756569
H           -4.17066623866660        6.09670061587297        2.74260438574529
H           -3.20112270130436        7.29819729646972        1.89381922277043
H           -4.94837524138146        7.49721045625172        1.99906402724124
H            6.77954973108451       -2.05548890697825       -1.16996082776703
H            8.14720180197182       -0.27789969838273       -2.06475063841265
H            8.41064996803885        2.02044563893059       -2.91006912855043
H            6.45914037176167        3.52868358589712       -2.98827891587263
H            4.28718111901355        2.78665897452128       -2.11804829743764
H           -6.43472528745287       -2.74357561388157        1.25547829405057
H           -4.25797191170065        2.20349269963677        2.43527869568038
H           -6.34957086386874        2.63532937904938        3.64482862458113
H           -8.15736410331761        0.95479927957063        3.64110660823375
H           -7.81616592307081       -1.20839691116766        2.51525931814827
H           -2.10243442170525       -5.72731975087684       -0.58217729180471
H           -0.86913055989170       -6.92332171945371       -2.33628206809837
H            0.13113397794830       -5.68281191111588       -4.21974496701185
H           -0.15271969791257       -3.23303819099914       -4.35822063084531
H           -1.42285434992713       -2.04022451369747       -2.63554889897781
H           -3.56564584645935       -5.66807890999132        1.35730388905662
H           -4.82257239164156       -7.77861322561392        1.13016393562379
H           -6.61328116075658       -7.97380598136566       -0.55610550104999
H           -7.14147575594797       -6.05586718573906       -2.01559412581943
H           -5.87338210122004       -3.95109322537917       -1.79542261546358
H            3.86905650583459       -5.58077607215777       -1.42967995018065
H            5.25464001833970       -7.55969017124732       -0.99176292568692
H            7.18942944296161       -7.40591724879817        0.53164285215451
H            7.72499227327165       -5.25517445666414        1.61747656978301
H            6.31394896522679       -3.28019522500761        1.20438135342255
H            1.86950070989636       -2.73559338354758        2.36219768332992
H            0.42957126941603       -4.33238991009779        3.56026891917742
H           -0.30616110179988       -6.40918702723113        2.44552777966749
H            0.37839051832557       -6.85955382711682        0.11827470010806
H            1.74829374770070       -5.23066254953732       -1.10396348798345
H            6.04581751000538        6.63733959665958        0.11392320156741
H            5.60715222825077        5.11558464683190        0.88082835971109
H            5.52807827148501        5.28087619395129       -0.88043571553359
H            4.40256176770870        8.10655340687417       -0.91403242680695
H            2.68411848978682        7.72173243732660       -0.92250075962168
H            3.79439267798284        6.79376717793997       -1.92711930668627
H            3.90905067612640        6.30571901677954        2.34450575888541
H            4.52678620763407        7.79532111094841        1.62419774370123
H            2.79541223709027        7.47152661710310        1.63388705277777
