132
energy: -196.931656815784 gnorm: 0.005775186217 xtb: 6.7.1 (edcfbbe)
C           -1.25638191567200        0.35321874070126       -0.08782829460553
C           -1.17362342864381       -1.04296938853291       -0.25380153519636
C            0.05772268489455       -1.68969782196925       -0.34068366067812
C            1.24656011887675       -0.96361230994089       -0.33458247384411
C            1.23121535950195        0.45246954659749       -0.31366093823501
C           -0.03617893293134        1.04820983196955       -0.17120071150757
N           -0.09300949636548        2.40251444647029       -0.07943264338883
N           -2.37125114221590       -1.73667472997180       -0.23692764462097
N            2.48895041914713       -1.57577110402640       -0.32271468147145
C            0.98492078565815        3.24099663714856       -0.04627032623766
C            0.54352511568898        4.57340296614074        0.09311656839381
C           -0.90736529487366        4.51312850632230        0.10320507388404
C           -1.23587882147893        3.14300056126034        0.04002301025860
C            2.31313584059549        2.83618319863397       -0.12404163396608
C            3.23126206083828        3.87455058753472        0.09537126460008
C            2.85310145227884        5.20261064955003        0.26531002974910
C            1.49911316299138        5.55988448224481        0.22834321188290
C           -1.94291064118541        5.42532778031000        0.14338784907699
C           -3.26623541693458        4.96756970884826        0.10039653419698
C           -3.53246268688296        3.60172121563774        0.10509103066498
C           -2.52532496563949        2.62609110671946        0.12586957162774
C           -4.38440883087196        6.00272949228211        0.06952482194941
C           -4.19274905752106        6.90901034348227       -1.15524780567241
C           -5.77730792733680        5.37371529310504       -0.02426563793493
C           -4.32499644863721        6.84009484328421        1.35474196958745
C            2.84310666776652       -2.90571573408969       -0.11159431296239
C            4.20675467784827       -3.03826222704097       -0.11535755494980
C            4.75619257997957       -1.74074042627435       -0.39900941856332
C            3.65006097660547       -0.85397339453775       -0.50235300392756
C           -3.45269564739912       -1.20795392761168        0.42639023951426
C           -4.38134663047424       -2.25646323578851        0.66038010068711
C           -3.83808794415983       -3.43334502262821        0.03834322911224
C           -2.64874563817016       -3.07210626293708       -0.55731006933979
C            6.03110219768209       -1.27451386905709       -0.60084754152448
C            6.20772581517777        0.06641110331085       -0.99180964559754
C            5.08594714300144        0.94138461865358       -1.10113487844577
C            3.77600983262220        0.50985252416741       -0.72982826304830
C            7.49344478431321        0.55743855265074       -1.31391990827746
C            7.66772513244905        1.82476234928543       -1.78964376602375
C            6.55224010681938        2.64955345837741       -1.99993851256589
C            5.29900755400193        2.21650516661539       -1.66554327740037
C           -3.65273342932349        0.11369825172184        0.79756627534388
C           -4.82222486524851        0.34984647104282        1.58188818578936
C           -5.76648527254773       -0.69428303115329        1.82896845846416
C           -5.54090718972731       -1.99835415610810        1.34824743400418
C           -5.05491186102653        1.60176644617352        2.18867216758343
C           -6.18057378383353        1.84343469592118        2.92628032629575
C           -7.14111760277713        0.83691755296602        3.10722268117078
C           -6.92754452625722       -0.40433492310147        2.58161965006744
C           -4.49060705275404       -4.73670382390472        0.14285762412211
C           -1.99430392782102       -3.73625491341298       -1.67915390428829
C           -2.08255231204582       -5.11381451466384       -1.88570067263303
C           -1.59242905702988       -5.68783823299196       -3.04369744589366
C           -0.98650450785606       -4.91089168647665       -4.01601822836641
C           -0.90274264051607       -3.54144971450989       -3.83084021243360
C           -1.40982275116962       -2.95958063215819       -2.68632074426242
C           -3.84877803018110       -5.77863600267482        0.81331795439561
C           -4.48590479895776       -6.99151401195610        0.99265590891388
C           -5.77177140221251       -7.17723033389671        0.51131959995269
C           -6.41935627833039       -6.14487079641251       -0.14519518306826
C           -5.78601097606044       -4.92788439073228       -0.32475507937813
C            4.97693587775983       -4.24425929523694        0.17636421920523
C            4.67206654762253       -5.47063780366825       -0.40765068536214
C            5.40151282537337       -6.59972629582596       -0.08565975420556
C            6.44807705815492       -6.52086858569222        0.81697877072255
C            6.76882144209179       -5.30303556395293        1.39383863846937
C            6.04015103799533       -4.17311913767417        1.07664387971313
C            1.93721251788245       -4.03733478363599        0.15363519437743
C            1.72611352571294       -4.44972116433236        1.46569803368858
C            0.99979848710620       -5.59751079044355        1.72691894577732
C            0.50212309926337       -6.35635895670449        0.68106669674433
C            0.71810103066234       -5.95867477008030       -0.62788727251106
C            1.42220076599992       -4.79910085329304       -0.89332990702508
B            2.50254489571906        1.32093120705201       -0.42052410318579
B           -2.56865760288351        1.08112122410556        0.26861111965895
C            3.87973784071064        6.30606908657742        0.49305610627855
C            5.31851505854948        5.78385085936953        0.53948604548854
C            3.78187835032338        7.32514797271409       -0.65098053687803
C            3.58230612776296        6.99386229421530        1.83324424083718
H            0.07977007065548       -2.76407120515680       -0.38998092064284
H            4.27303439792243        3.61179355048816        0.15401434538193
H            1.19687775623835        6.59051140647137        0.33283508678590
H           -1.72623998469448        6.48155072057582        0.18875066372280
H           -4.55284239060652        3.25896105630595        0.07338713004864
H           -4.99695821553490        7.63976083865199       -1.21253552712553
H           -3.24983077975239        7.44685285109157       -1.11111788795871
H           -4.20224747360810        6.31355916080205       -2.06611334831559
H           -6.52756861974806        6.16109443435284       -0.06290036427273
H           -5.98932707173762        4.75143402028735        0.84214676172891
H           -5.87496017703579        4.77324375931590       -0.92575024005062
H           -4.44806102353300        6.19867696857610        2.22513388407955
H           -3.37509717965360        7.35944401871988        1.44726694166418
H           -5.12030053805146        7.58265413743769        1.35771726196318
H            6.88725490032718       -1.92645194350403       -0.50841165399563
H            8.33898246981229       -0.10617508972102       -1.19637664868453
H            8.65472582611907        2.18839288775273       -2.03619723940384
H            6.69225597442373        3.62584368900827       -2.44218079099906
H            4.43733646412692        2.83090704796584       -1.87202049326312
H           -6.26569323201214       -2.77723925467575        1.53602991086233
H           -4.30138067150680        2.36529903261343        2.08574721835110
H           -6.33327449470060        2.80962615826930        3.38599959702405
H           -8.03240778277506        1.04533489570493        3.68131864866405
H           -7.64169502717112       -1.19960199755966        2.74513966583905
H           -2.55058252504652       -5.73961179146772       -1.14501322064892
H           -1.68979640143996       -6.75430882756308       -3.19038611161767
H           -0.59834498413160       -5.36534709072523       -4.91593075357203
H           -0.45571431296899       -2.91880471849418       -4.59187873016604
H           -1.37733120938838       -1.88561823286759       -2.58715344921421
H           -2.85377304478773       -5.61676033889014        1.20552966012217
H           -3.98328235788597       -7.79358296079709        1.51389163576668
H           -6.26972503123520       -8.12524643260665        0.65476775828666
H           -7.42374054237537       -6.28804425300667       -0.51588691065789
H           -6.28534027394594       -4.11960159522840       -0.83890248956198
H            3.86663722770425       -5.53313063486145       -1.12278926152060
H            5.15304663942233       -7.54643333109329       -0.54304275281724
H            7.01334677827459       -7.40585937322280        1.06997460254812
H            7.58665506192091       -5.23703321845121        2.09742723838702
H            6.27355007614099       -3.22687244310916        1.54265522630440
H            2.14426065804769       -3.87060963449728        2.27692021751086
H            0.83979855171952       -5.91205709823481        2.74835749631374
H           -0.04529011372440       -7.26555396174809        0.88323299450245
H            0.34841329976152       -6.55956150290208       -1.44443890368877
H            1.58359984773020       -4.48186525097241       -1.91509638424458
H            5.99905937675825        6.61551776755635        0.71209927264608
H            5.45085933957163        5.06941263774160        1.34865295525888
H            5.59698565282088        5.31126843559936       -0.39939166946924
H            4.51190531889668        8.11985184148274       -0.51039617188407
H            2.79472261440421        7.77677491411904       -0.69964359273368
H            3.98053505837102        6.83859925019170       -1.60394158804663
H            3.62148858748884        6.26736036726005        2.64242315350411
H            4.31844373980569        7.77038987201228        2.03044313968707
H            2.59733954910963        7.45243130691333        1.83632384478513
