132
energy: -196.926305420401 gnorm: 0.007131113870 xtb: 6.7.1 (edcfbbe)
C           -1.31221772534540        0.35393084729055       -0.20763420759103
C           -1.23531880601328       -1.05008555343742       -0.30577937701831
C           -0.00572687075509       -1.70943627428313       -0.27637714628422
C            1.19667447451634       -1.00147071361649       -0.29909625256925
C            1.18158655539856        0.41781611240341       -0.35282759802387
C           -0.08348265385565        1.03252191470483       -0.26824029057891
N           -0.13350405939417        2.39115211999698       -0.21366561397058
N           -2.44887725833374       -1.72348125138150       -0.33166294548553
N            2.44606882134178       -1.61605057123951       -0.24842068375601
C            0.94988451564257        3.22188743015401       -0.13723961201537
C            0.51920387023670        4.55695827593738        0.01113392089049
C           -0.93162404072469        4.51164848644610       -0.02400854796804
C           -1.27346470305711        3.14495052807202       -0.12064689179057
C            2.27435348865823        2.80302749417293       -0.17013924141462
C            3.19841271373214        3.82634612834148        0.09566716144150
C            2.83094513055762        5.15473394614953        0.28495690851038
C            1.48124245170387        5.52664828151515        0.21018459659334
C           -1.95592360771877        5.43483496525719        0.03464220815651
C           -3.28739732330723        4.99875476770292       -0.02666817359292
C           -3.56740044431787        3.63593462106410       -0.05925737959944
C           -2.57045754654444        2.64580844715576       -0.05064054834632
C           -4.38832309222195        6.05374641995817       -0.01427311535193
C           -4.19045936253576        7.00845847930799       -1.20130172463995
C           -5.79590877495244        5.45901375212121       -0.12333474541783
C           -4.31162855437444        6.84231035105352        1.30185593226878
C            2.82699108969199       -2.93516983695515        0.02848446883790
C            4.19629136715608       -3.03545294921208        0.07421560184983
C            4.72706141892871       -1.74172738959482       -0.24955947997414
C            3.60569070926689       -0.88385854076254       -0.42384200408121
C           -3.51890153926806       -1.17995869542495        0.33985172256160
C           -4.45015902722436       -2.21867744508650        0.60967845506187
C           -3.93137202231850       -3.40826455571752       -0.01417972362184
C           -2.75520608642602       -3.05664184749237       -0.65415886424254
C            5.99845297904407       -1.25972068534593       -0.43897967827232
C            6.16973151814876        0.06421165415339       -0.88535491513636
C            5.03666007140262        0.91345696513177       -1.05925330336821
C            3.72784008635383        0.46987861913335       -0.70397800329363
C            7.45507660451413        0.56260100926466       -1.19137317763328
C            7.62200090571412        1.81389350974573       -1.71257758961641
C            6.49935424367470        2.61138797495310       -1.98127605548481
C            5.24420166012119        2.17046267176688       -1.66220789946296
C           -3.69832767306217        0.15212197645561        0.68125086257778
C           -4.83603033922686        0.42148519710093        1.49801808006833
C           -5.77733749499989       -0.61070602299414        1.79995140168521
C           -5.58027048286827       -1.92600098241779        1.33519319183254
C           -5.03184025686252        1.68610466355560        2.08880009576774
C           -6.12118555701739        1.95060392739944        2.87160412184483
C           -7.08280993374702        0.95658104136524        3.10741195788222
C           -6.90484294858968       -0.29498710864379        2.59102025933778
C           -4.54586057601696       -4.72066575342964        0.17247932356664
C           -2.12292845155957       -3.71735997087923       -1.78968985317967
C           -2.44219456898215       -5.03210883332592       -2.14977867317750
C           -1.91487997523162       -5.61375570730619       -3.28664493101426
C           -1.04699154658170       -4.90990045000048       -4.10637271250518
C           -0.75846664035364       -3.59225278065456       -3.79364903334405
C           -1.30180425532998       -2.99971400091419       -2.67045900462525
C           -3.77562533516958       -5.77876621369921        0.66441317028058
C           -4.35128196913564       -7.00441419269088        0.93752508648660
C           -5.70992317962276       -7.19755351185860        0.74053677137315
C           -6.48492649534850       -6.15349196496801        0.26183186745578
C           -5.91099754048905       -4.92635246677877       -0.01936825362643
C            5.02109666026433       -4.21147637283708        0.34610726860876
C            4.77625977971772       -5.44450698727244       -0.25585758731634
C            5.60874600145839       -6.52195037804301       -0.01654466868072
C            6.70368902944193       -6.39228300405726        0.82296549523473
C            6.95026659091134       -5.17522595444149        1.43588434305850
C            6.11753467866668       -4.09695871165539        1.20161306322616
C            1.97831621759285       -4.11781011711094        0.21478102464873
C            2.09627952045998       -4.85235723535642        1.39539471009264
C            1.44098215029629       -6.06066035507348        1.54211140432653
C            0.65680762842465       -6.55668357048440        0.51244545017344
C            0.53916096312379       -5.83801732234095       -0.66775373554902
C            1.20029583217851       -4.63316601419826       -0.82199775752849
B            2.45120768555205        1.28478603057354       -0.45038869686782
B           -2.62214520656049        1.10249968999290        0.10937604313757
C            3.86084154372864        6.24067316091257        0.57392565125326
C            5.29583627113450        5.70795972638033        0.63697444936142
C            3.79886687037845        7.29777767460003       -0.53872228108433
C            3.54341060935987        6.89201526025880        1.92814825655606
H           -0.00682024698108       -2.78488007003600       -0.22545281464709
H            4.23525866401660        3.54889159516550        0.17840078779856
H            1.18619819470638        6.55675651324642        0.33801268032066
H           -1.72504386888410        6.48579869491499        0.11671112330020
H           -4.59246987330097        3.30611918121134       -0.10000824122466
H           -4.98306663018702        7.75438772301127       -1.21685718493494
H           -3.23854060536887        7.52906402791457       -1.14353072613399
H           -4.21996048156685        6.45524502010202       -2.13785376625199
H           -6.52589414055926        6.26667383251714       -0.12089600075305
H           -6.01788895516149        4.80571141926524        0.71725948626036
H           -5.91705793478015        4.90132663012233       -1.04918215624968
H           -4.42705116280538        6.17049831996041        2.15013229699507
H           -3.36106038110308        7.35888712024169        1.40380943329693
H           -5.10663952076581        7.58484806566102        1.33948053246332
H            6.86463428740993       -1.88857616802007       -0.29643301745894
H            8.30965538491045       -0.07815747493039       -1.02422144778965
H            8.60922675076661        2.18415832700581       -1.94663905089085
H            6.63401784866295        3.57388621705619       -2.45375833099657
H            4.38240178631509        2.77055849940214       -1.90907365135539
H           -6.30960952406932       -2.68567338117820        1.57585818045249
H           -4.27940452053597        2.44334678983354        1.94089273394499
H           -6.24179286814134        2.92499274517766        3.32304968883490
H           -7.94674154261543        1.18229911860134        3.71507117123182
H           -7.62424246238945       -1.07565639650926        2.79633468934752
H           -3.12143679541712       -5.61136412475783       -1.54641082587191
H           -2.18632421908650       -6.63029402524835       -3.53444427764557
H           -0.61984446125044       -5.37329278051544       -4.98273984847001
H           -0.11076808399537       -3.01271661961249       -4.43638546116309
H           -1.09218313724199       -1.95655757075513       -2.49734890014823
H           -2.71835887883011       -5.62993822049714        0.83855912919838
H           -3.73904183419434       -7.81241382765563        1.31231626983044
H           -6.16042626563560       -8.15355324169586        0.96206531189695
H           -7.54500869611924       -6.29770582156817        0.10778852082120
H           -6.52268595193437       -4.12549052933499       -0.40973288369392
H            3.93792942922737       -5.55687173897673       -0.92746918286475
H            5.40724317544842       -7.46932023821054       -0.49537693954475
H            7.35960572443576       -7.23236725167470        0.99801611858557
H            7.79723734156831       -5.06645969619070        2.09899950471973
H            6.30783805679315       -3.15732048824415        1.70022786810111
H            2.71622074010098       -4.47637349529499        2.19639421707629
H            1.55235935704737       -6.62315318976815        2.45879440592352
H            0.15173812553097       -7.50487761476658        0.62171530363398
H           -0.05819621524461       -6.22195539366822       -1.48105214536451
H            1.13156635596988       -4.10423500841826       -1.76272055088944
H            5.97563559252337        6.53403826117520        0.83821448721741
H            5.41096942130063        4.97860418167783        1.43560400560272
H            5.59154514384356        5.25169764192363       -0.30459639169407
H            4.55085868172710        8.06606261545098       -0.36822623542145
H            2.82580905368420        7.77971599778847       -0.57811898230183
H            3.99011259229435        6.83607942430785       -1.50542375372659
H            3.56863403159915        6.14492668105183        2.71898856842675
H            4.28093631052031        7.65933141980560        2.15561079104967
H            2.56072842470953        7.35573647536454        1.93009311324978
