132
energy: -196.934038625313 gnorm: 0.003973238597 xtb: 6.7.1 (edcfbbe)
C           -1.25134839886138        0.33898026581304       -0.02114698255495
C           -1.17337396410332       -1.05563973111941       -0.21845799129847
C            0.05405591598666       -1.69855043169666       -0.34247268088286
C            1.24390652730250       -0.97515967791995       -0.32639627597062
C            1.23379108252619        0.44023527894234       -0.29113713127938
C           -0.03212269616201        1.03332679696584       -0.12110509082337
N           -0.08410589882547        2.38643961401863       -0.01793209373206
N           -2.37436482815377       -1.74410790586235       -0.20675225873851
N            2.48502124454878       -1.58690164806539       -0.33361693726752
C            0.99492809645963        3.22510181846068       -0.02500998461229
C            0.55451745693342        4.55925965500854        0.10776092325160
C           -0.89559779092978        4.49818477473017        0.15677660368547
C           -1.22652903528349        3.12704472958229        0.11423815867458
C            2.32199114304917        2.82114923166789       -0.13177079104203
C            3.24257892689703        3.86613443350744        0.05228200627649
C            2.86731533943842        5.19646694729383        0.20770091727165
C            1.51091654188552        5.54957668857659        0.19970335002179
C           -1.92797186757987        5.41075940158138        0.22964938269467
C           -3.25345532442461        4.95432348833730        0.23775187511350
C           -3.51936753051636        3.58917115891584        0.24754499998794
C           -2.51277239037800        2.61054915394207        0.23644942749198
C           -4.36862864669675        5.99254442535085        0.25686397670976
C           -4.24161023937538        6.88717856606336       -0.98486548228721
C           -5.76788380561632        5.36974623380012        0.24753209941517
C           -4.23871555985995        6.84492015799921        1.52757240546823
C            2.82921157966700       -2.92589989143791       -0.14669947099225
C            4.18682590661621       -3.08022144493418       -0.25020332197443
C            4.73281885857980       -1.78460274697725       -0.55918262917054
C            3.63836228170234       -0.87802998830428       -0.58224237093586
C           -3.45594835524908       -1.22732740593714        0.46540089895899
C           -4.39366700564756       -2.27593751994009        0.66209092093273
C           -3.84986015295237       -3.44080608602408        0.02195659343631
C           -2.64723333227401       -3.07796471573986       -0.53678965143792
C            5.99752312636207       -1.33030746018281       -0.83475137238639
C            6.16901256104148        0.01659102579400       -1.20776596224176
C            5.05639412734401        0.91142836929897       -1.23454565141100
C            3.76264065501329        0.48771727957953       -0.80124058453682
C            7.44344682937414        0.49101012920305       -1.59031651081377
C            7.61725409265839        1.76808832422196       -2.04052891337685
C            6.50825672137589        2.61764070894822       -2.16251280432217
C            5.26564215589505        2.19696965332741       -1.77414742153825
C           -3.64920922661372        0.08736647800852        0.86577304292590
C           -4.82165714195045        0.31063087295781        1.64975521260038
C           -5.77785576081218       -0.73255024396467        1.85595354947883
C           -5.56174491398763       -2.02334626983723        1.33759034795295
C           -5.05223871131221        1.54421927384107        2.29306174321108
C           -6.18485139539209        1.77147958423691        3.02557621355114
C           -7.15397027090767        0.76756381689564        3.16800218555634
C           -6.94355839304537       -0.45867974697315        2.60664661644615
C           -4.54219620963764       -4.73261330208886        0.03774264481978
C           -1.92453466642869       -3.77404008267961       -1.59345056097883
C           -1.89655903185122       -5.16529241002571       -1.67727661854186
C           -1.31397441178027       -5.79430610395523       -2.76203965555692
C           -0.72641181895890       -5.05468917455145       -3.77347526191113
C           -0.75278451219341       -3.67113391731528       -3.70535568976018
C           -1.35724932109865       -3.03740236360368       -2.63890323347161
C           -4.04748048032940       -5.77925965377189        0.81328429752795
C           -4.73425475937754       -6.97676652231468        0.89332884830593
C           -5.92510764534172       -7.14283038632966        0.20493891898610
C           -6.42966323692653       -6.10250891419098       -0.55792429998403
C           -5.74688100901626       -4.90194609573533       -0.63692676218784
C            5.00595533810820       -4.25949272885043        0.02634991391709
C            4.76543483887971       -5.50676675419736       -0.54218714825869
C            5.57882063053136       -6.58494756802709       -0.24490802102113
C            6.64999724497865       -6.43826882887538        0.61952948275177
C            6.90269514991660       -5.20063387444649        1.18723006616402
C            6.09018527718855       -4.12249931797146        0.89407554556924
C            1.88214750039751       -3.98131490924024        0.24057579726245
C            1.37105350803163       -4.01823137981107        1.53743231176249
C            0.53795479407846       -5.04982174965789        1.92963721386663
C            0.23060509938276       -6.07116343339101        1.04452604802293
C            0.73758983613100       -6.04318284241473       -0.24436238014951
C            1.54359338254633       -4.99511877668594       -0.65129887255050
B            2.50508777035859        1.30402283829847       -0.43078794407576
B           -2.55853559148629        1.06250509092800        0.36151388961903
C            3.89557051576450        6.30808852940805        0.38198851981117
C            5.33838262838074        5.79432045155709        0.39833442198828
C            3.76157042266947        7.30155568896565       -0.78151850091618
C            3.63581489692035        7.02902527970841        1.71272531940356
H            0.07574956624191       -2.76912929055347       -0.43650262623263
H            4.28652965925568        3.60665738607930        0.09426671403579
H            1.20732031513331        6.58114504275229        0.29254840136153
H           -1.70739955256025        6.46674239468043        0.26317374352962
H           -4.54123100205756        3.24862913398485        0.24746536062578
H           -5.03928647565516        7.62717393478072       -0.99769569190698
H           -3.29120182529725        7.41345743126041       -1.00210253986340
H           -4.31407148238520        6.28606229784724       -1.88905920426595
H           -6.51410398605444        6.16230557763356        0.24822916854338
H           -5.93238522237195        4.75370036285413        1.12869624911473
H           -5.92318656468027        4.76522776237913       -0.64285200120079
H           -4.29942271093285        6.21327381067051        2.41151311968842
H           -3.29248800488993        7.37825997742111        1.55515928040510
H           -5.04226866208279        7.57753054379890        1.57094823748070
H            6.85074655179913       -1.99249269295375       -0.80999276509320
H            8.27974061332237       -0.19232865183084       -1.53804047424838
H            8.59611687066414        2.11933845272359       -2.33288727898657
H            6.64206653046518        3.60553913112979       -2.58012671445097
H            4.40869754335830        2.83515874421325       -1.91766243648910
H           -6.29950024021860       -2.79825126869712        1.48901233929859
H           -4.29307385463053        2.30635169027285        2.22386293615970
H           -6.33538426430385        2.72581912518929        3.51058374280486
H           -8.04906669793636        0.96339143680366        3.74038777760599
H           -7.66270904712051       -1.25507852809902        2.73927525722082
H           -2.33860391329266       -5.75874832981859       -0.89451376205924
H           -1.32064660864125       -6.87352414726179       -2.81773533115652
H           -0.26235225470001       -5.55002448040043       -4.61350499385505
H           -0.31291873931194       -3.07984488427029       -4.49537549369278
H           -1.40686131447049       -1.95875148551309       -2.62516860800343
H           -3.12739420483737       -5.63995664733006        1.36577959803093
H           -4.34346022553424       -7.78201382762579        1.49937235062381
H           -6.46137460182749       -8.07828927505719        0.26966819976121
H           -7.36214352690857       -6.22617542832102       -1.09020598903711
H           -6.14149816788180       -4.08842456512981       -1.22916003064239
H            3.94768327374623       -5.63366257713518       -1.23271226652828
H            5.37716328662970       -7.54575915324164       -0.69664090182008
H            7.28533159068059       -7.28108792200993        0.84814119408104
H            7.73628391668578       -5.07610550513828        1.86393076165172
H            6.28173219124571       -3.16407214572250        1.35460273231508
H            1.62730910649277       -3.23100522662102        2.23365994110496
H            0.13676870988821       -5.06211130038617        2.93390820405690
H           -0.40119468721101       -6.88923990732320        1.35982834705737
H            0.50839682183811       -6.83977223631696       -0.93658077484202
H            1.89430720382942       -4.94778366640111       -1.67481567659585
H            6.01752618847488        6.63523166991822        0.52794276055770
H            5.50091931834746        5.10301894918793        1.22185940173891
H            5.59222351998445        5.29904197546789       -0.53582378623663
H            4.49330757868962        8.10055529475718       -0.67793257641050
H            2.77241252014790        7.75008598823959       -0.81167174641509
H            3.93501511011763        6.79575853252403       -1.72937532783524
H            3.69315844308144        6.32348124341182        2.53905225265075
H            4.38123670700561        7.80596710242056        1.87017243320653
H            2.65399002709994        7.49397594003625        1.72995711691369
