132
energy: -196.936295369760 gnorm: 0.002876509327 xtb: 6.7.1 (edcfbbe)
C           -1.26142789606523        0.32895711884441        0.11899143923302
C           -1.18972117886467       -1.06755638255731       -0.07733954943985
C            0.03449132958034       -1.71719461063885       -0.19577070235621
C            1.22060929627063       -0.99043421524775       -0.22667972195092
C            1.21104815165050        0.42284274272547       -0.23350486523492
C           -0.04397394924456        1.02029679804878       -0.01516766383847
N           -0.08331464841319        2.37363603110988        0.08188910179792
N           -2.39262419962327       -1.74756294356599       -0.09597382749953
N            2.46013596296038       -1.59871792022175       -0.27808679770053
C            0.99994016137441        3.20452073034424        0.01417547622524
C            0.57905400840585        4.54045419934455        0.18388351145903
C           -0.86574433344414        4.48861011362839        0.32449562571111
C           -1.21089256555803        3.12102639667085        0.28052933509264
C            2.31335607860190        2.79480834352777       -0.19471625951542
C            3.25144485862683        3.83408276963851       -0.09554609412848
C            2.89665042948341        5.16598831421305        0.09238296998794
C            1.54654216626184        5.52465417927523        0.20454621086222
C           -1.88475438134243        5.40777542786193        0.47160544256915
C           -3.21140525649226        4.96124072406381        0.54158315898995
C           -3.49063306066322        3.59862772052394        0.51979352830686
C           -2.49606663210116        2.61090545636155        0.44050396502195
C           -4.31476716957794        6.00583914870692        0.66444294628895
C           -4.26002148153537        6.94360842951384       -0.55001655179390
C           -5.71683242864256        5.39238687666482        0.72418859664165
C           -4.09701194499445        6.81094143244002        1.95411274750310
C            2.81418691058869       -2.93111091777538       -0.06341657537132
C            4.13590430370788       -3.11278499034670       -0.37336883861933
C            4.64957325268557       -1.83782211508134       -0.79906936456255
C            3.57286648167212       -0.91501567361958       -0.70368556915613
C           -3.50987746149302       -1.21464394421611        0.49954022878566
C           -4.50427919977347       -2.22975763219801        0.56631474339252
C           -3.94423284359910       -3.38854043927276       -0.06996726363736
C           -2.67654414042334       -3.06084900586523       -0.47341580426882
C            5.87964185552398       -1.40254631566607       -1.22298042694482
C            6.02004635803534       -0.06104403701741       -1.63037089295960
C            4.91838817482121        0.84473334314615       -1.55177143122298
C            3.67869900370216        0.44295482349669       -0.96936332626346
C            7.25063155893586        0.40260414344341       -2.14633271067837
C            7.38376162293931        1.67380273745291       -2.62677162792050
C            6.27303841425973        2.53007011320830       -2.64701342284508
C            5.07598672952791        2.12271832828907       -2.12548812691361
C           -3.68487196059531        0.08780545876192        0.94492776128039
C           -4.89448197083834        0.31585599447618        1.66763709421722
C           -5.91440065432381       -0.68348673074312        1.72745719165156
C           -5.71802829457481       -1.95078852861035        1.14398941659234
C           -5.09442818266288        1.50357558082082        2.39993539920399
C           -6.26059645448181        1.74243479969529        3.07313803142481
C           -7.29745087827395        0.79824630957953        3.05276668197552
C           -7.11813611888604       -0.39124761566340        2.40691027064100
C           -4.66281887466961       -4.65190385034254       -0.28679835956806
C           -1.82727898433178       -3.84259845927979       -1.36696774163130
C           -1.66957816695926       -5.21548267877353       -1.19624945633360
C           -0.93086164477001       -5.95171155771500       -2.10405583208262
C           -0.33131678531167       -5.33153134343953       -3.18676474269668
C           -0.48638865725559       -3.96647618318078       -3.36775829049238
C           -1.23512320854149       -3.22831288494223       -2.47321867800353
C           -4.54953687449403       -5.69291889936264        0.62978326890107
C           -5.23903301447952       -6.87501815103911        0.43262556717351
C           -6.05825647724487       -7.02584322835278       -0.67527204481407
C           -6.18355479593559       -5.98989249067634       -1.58587008866447
C           -5.49066392896532       -4.80822932484741       -1.39344222112677
C            4.97359601424650       -4.30183129496089       -0.20137481571938
C            4.76393043948956       -5.47626836916975       -0.91555576273939
C            5.59376008440059       -6.56740895086268       -0.73022123520933
C            6.65005932845017       -6.49822256309010        0.16157015339406
C            6.88005122647980       -5.32548852046687        0.86209737853496
C            6.05088842479495       -4.23535632636852        0.68013840655527
C            1.93678315009180       -3.87738210101246        0.63139852710217
C            1.47081460912449       -3.55280624131738        1.90645045746060
C            0.68899784811118       -4.44528959125559        2.61254378933399
C            0.36872374964756       -5.67696628127440        2.06272823261219
C            0.82577998064496       -6.00520583727153        0.79890320568582
C            1.60037797599710       -5.11062233022389        0.08322253235682
B            2.46961682717130        1.27552539960284       -0.48908220716013
B           -2.55948685414888        1.05879525768012        0.51748260740446
C            3.94286255791842        6.27221151406708        0.16404711982772
C            5.37766610981895        5.74836215523356        0.04999759407027
C            3.70605967304784        7.25588025486078       -0.99127859319460
C            3.81321962972536        7.00518170588694        1.50686850204795
H            0.06235877962099       -2.79026468022080       -0.26205909033250
H            4.29292583365174        3.56783627835783       -0.15218866762970
H            1.25825817739537        6.55760807447114        0.32704699581552
H           -1.65427325007529        6.46131855140551        0.51537584686869
H           -4.51493967498271        3.26825623458895        0.55011769306282
H           -5.04998396554293        7.68916919341818       -0.48445663578217
H           -3.30796689384985        7.46343704980391       -0.61063893402561
H           -4.39696010700434        6.37593575729922       -1.46823965908626
H           -6.45414248397458        6.18812044756712        0.81273036179042
H           -5.82515265971594        4.73746411905781        1.58547119777385
H           -5.93869301061135        4.82952063286323       -0.17951309342850
H           -4.12308091264008        6.14952318479445        2.81793198515400
H           -3.13921504712454        7.32381694492995        1.94796819974689
H           -4.88072287959684        7.55728825540897        2.06725168947514
H            6.72487429680219       -2.07357805143263       -1.27521183368188
H            8.08617033529403       -0.28307778547989       -2.16994670120327
H            8.33053807899654        2.01627999527910       -3.01850665755312
H            6.36843622487847        3.51158123764538       -3.08951289916014
H            4.21196256065763        2.76541636976761       -2.18213131041862
H           -6.50469242497338       -2.69076173078618        1.18143538301755
H           -4.28368899962586        2.21205595286041        2.45328535872097
H           -6.38624352186614        2.65640680560272        3.63620232048597
H           -8.22121104401892        1.00724047598074        3.57197189190019
H           -7.89279075052780       -1.14525730125120        2.42120518432109
H           -2.12049854548166       -5.70239431954301       -0.34608655770473
H           -0.82031651047114       -7.01780463195659       -1.96444903879706
H            0.25089977391701       -5.90889648484596       -3.89087553773384
H           -0.02908396942318       -3.47676481603279       -4.21545408157183
H           -1.37121644146305       -2.16765447860216       -2.63135992013878
H           -3.91711209758046       -5.56811495204961        1.49832157626611
H           -5.14047353077525       -7.68083684582435        1.14620237697825
H           -6.59853111071606       -7.94863045358876       -0.82786012794997
H           -6.82516692701998       -6.10262460825986       -2.44844999442062
H           -5.58497771232988       -3.99873978723590       -2.10344601152566
H            3.96445855138521       -5.52850789676763       -1.63930021090606
H            5.41885264045108       -7.47503923829805       -1.29021119991842
H            7.29663162575990       -7.35148748432146        0.30473208621951
H            7.70899115110774       -5.26065491523153        1.55228550809966
H            6.22640882253678       -3.32128582628745        1.22971967609553
H            1.72775346386907       -2.59579784021414        2.33875911710307
H            0.33266175394041       -4.18423421615360        3.59876520391010
H           -0.23619423436078       -6.37735961314777        2.61959944779049
H            0.57651032618773       -6.96210781105415        0.36454121347341
H            1.92203382004095       -5.35581260251583       -0.91653911294550
H            6.07157234729021        6.58509264470135        0.10492296551220
H            5.61240472302990        5.06456290788164        0.86254578372290
H            5.53896091012496        5.24082418839940       -0.89795988164828
H            4.44902096699564        8.05087179518537       -0.96590075619440
H            2.72092504981077        7.71049010555176       -0.93245773778273
H            3.78618059434319        6.73931215142619       -1.94579193558868
H            3.96192700964880        6.30879805259567        2.32996152625432
H            4.56328636992784        7.79036137518815        1.57958697477043
H            2.83365733293669        7.46131019335815        1.62043928914499
