132
energy: -196.936089644240 gnorm: 0.000995056964 xtb: 6.7.1 (edcfbbe)
C           -1.24456318178392        0.31397102815008        0.13822846748643
C           -1.17311537702327       -1.07989486578696       -0.07307092185927
C            0.05198560343990       -1.72631575225578       -0.20302108609445
C            1.23799331270560       -0.99901521851902       -0.22752569690596
C            1.22794592535255        0.41442219956244       -0.22005039165256
C           -0.02765318661634        1.00764251357422        0.00674148732320
N           -0.06989017730628        2.36001211701856        0.11357335668747
N           -2.37562562636671       -1.76136145093310       -0.09381957202611
N            2.47788859303691       -1.60604824660965       -0.28451820665630
C            1.01061125553757        3.19427433854599        0.04089194922548
C            0.58425066169666        4.52907055855064        0.20650842036328
C           -0.85985221180858        4.47263022065785        0.34982744166618
C           -1.20003052003005        3.10398055574256        0.31013022470928
C            2.32494453150044        2.78969131946315       -0.17342890675580
C            3.25789687099178        3.83536940629041       -0.08597903082396
C            2.89655830290533        5.16692995717953        0.09095283559215
C            1.54552449838857        5.51894426743373        0.21192754629257
C           -1.88185893944511        5.38902331835712        0.49156832261078
C           -3.20731817002505        4.93851834219253        0.55793982863919
C           -3.48230786536152        3.57512373076753        0.54017378141402
C           -2.48418408412189        2.59082659167535        0.46745367718589
C           -4.31381949893925        5.98028219457683        0.67154594362132
C           -4.24879998702303        6.92007067613433       -0.54084582649541
C           -5.71520678221653        5.36398516894876        0.71577103473993
C           -4.10922694553014        6.78233915555568        1.96498080144565
C            2.83356707939129       -2.93700834855359       -0.06477787922533
C            4.16276256267010       -3.11189977905854       -0.34664449431492
C            4.67624817049831       -1.83549286320684       -0.77033623950899
C            3.59417488235423       -0.91710163868763       -0.69117741201991
C           -3.49194657685401       -1.23332120189094        0.50703514953027
C           -4.48700402590194       -2.24747743467548        0.56260754709886
C           -3.92889479405852       -3.40112909223084       -0.08479526521306
C           -2.66181085792468       -3.07012032537883       -0.48901395158517
C            5.90594640336482       -1.39803495730967       -1.19387359040540
C            6.04028606518830       -0.06042647565153       -1.61575303962827
C            4.93825180364977        0.84515770241554       -1.53489870079671
C            3.69825360744517        0.44233769701973       -0.95275205866730
C            7.26361905682472        0.39658599112352       -2.15472843170144
C            7.39033839316383        1.66182946574437       -2.65186677133507
C            6.28229260627097        2.52168470881428       -2.65723837607001
C            5.09252232438458        2.12084017050535       -2.11448163198580
C           -3.66892842512593        0.06557349810695        0.96255229563895
C           -4.88150596789590        0.28790599166360        1.68238758669229
C           -5.90023551224311       -0.71333289599093        1.73436398647133
C           -5.70186928973270       -1.97517438571513        1.14094615996012
C           -5.08723032994236        1.47316047959967        2.41755652405731
C           -6.25581221181949        1.70621000566434        3.08875539955209
C           -7.28912738419194        0.75778859634409        3.06537242940763
C           -7.10546227645673       -0.42821949485377        2.41483452536247
C           -4.66051893956871       -4.65808955430008       -0.29010327540402
C           -1.82009294074988       -3.82499567415232       -1.41177687336894
C           -1.66626369085552       -5.20365107547490       -1.29456745227896
C           -0.92538296802071       -5.90657505948957       -2.22711374187043
C           -0.31987575534432       -5.24731517614792       -3.28245955032516
C           -0.47592730068222       -3.87651493727928       -3.41399128431000
C           -1.22704989366735       -3.17187594679247       -2.49544793834421
C           -4.47057762920096       -5.73262119373921        0.57274702758995
C           -5.18124256040935       -6.90575124826272        0.39603495535493
C           -6.09375686525576       -7.01531493524101       -0.63946257769267
C           -6.29870477617880       -5.94461693663142       -1.49309315520893
C           -5.58867898680976       -4.77045349184192       -1.31845935311305
C            4.99372870967681       -4.30190998290966       -0.16222971224564
C            4.73508135944542       -5.49904277036022       -0.82097944146652
C            5.55153394119547       -6.59800973230035       -0.62644191445160
C            6.64308766268411       -6.51511398787075        0.22067668297856
C            6.91990678398053       -5.32206496039333        0.86767345032288
C            6.10434656381433       -4.22329925774885        0.67628722440469
C            1.93840688334006       -3.87294423625069        0.62383706418515
C            1.49750223768603       -3.53744684241643        1.90486689487057
C            0.67478181751325       -4.39334361992309        2.60930274627871
C            0.29147450133540       -5.60305116299748        2.05303729532228
C            0.73029945716002       -5.94616258367464        0.78683363125872
C            1.54288295581998       -5.08483720685521        0.07100612403526
B            2.48584410678998        1.27082679615175       -0.47113127483305
B           -2.54371499113761        1.03915380839446        0.54182480550597
C            3.93394430434625        6.28256077205684        0.13718556498806
C            5.37099691045242        5.77171706738439       -0.00191592279031
C            3.66563513439134        7.25671041914913       -1.01948525104615
C            3.82188130786925        7.02170707443272        1.47814797924139
H            0.07827678884853       -2.79813870798414       -0.28370133755420
H            4.30091800695846        3.57568645193865       -0.14497604374307
H            1.25183720813045        6.55103146464588        0.32754783552838
H           -1.65461685621997        6.44333651447519        0.53233024206410
H           -4.50570501461340        3.24160476290017        0.56730164302403
H           -5.04613367737387        7.65849660459416       -0.48672399493606
H           -3.30065312880662        7.44865249960420       -0.58627938957083
H           -4.36632627982314        6.35222117842881       -1.46160982445792
H           -6.45502007716148        6.15811631386378        0.79774795452741
H           -5.83161137255017        4.70760923931127        1.57489003997492
H           -5.92617725027012        4.80202675399699       -0.19110027823742
H           -4.14431264851005        6.11871239684567        2.82670671084641
H           -3.15078699838103        7.29412922839867        1.96954341500818
H           -4.89339842416244        7.52902113805151        2.07217283354216
H            6.75455454084986       -2.06541474275663       -1.23926582248992
H            8.09724132618055       -0.29134196116014       -2.18623785839677
H            8.32940179830509        1.99654551242521       -3.06789074746632
H            6.37319657751864        3.50033016783993       -3.10680488162466
H            4.22986256747907        2.76596990623454       -2.16173042526263
H           -6.48782164415865       -2.71622330385033        1.16856304818023
H           -4.27862328267117        2.18413291763987        2.47333935169965
H           -6.38655789120348        2.61874987913790        3.65294015820784
H           -8.21394776866311        0.96110405830968        3.58549122564997
H           -7.87754239522125       -1.18513386108131        2.42579696613157
H           -2.12330304967763       -5.72232998811126       -0.46748576995072
H           -0.81812654615051       -6.97659201915200       -2.12708584780722
H            0.26569357406117       -5.79746755115638       -4.00408353548770
H           -0.01655604940846       -3.35577236759512       -4.24149892493143
H           -1.36346315560173       -2.10720183887589       -2.61759702867908
H           -3.76783200312939       -5.63899297932647        1.38986271907144
H           -5.02416516944799       -7.73654843163702        1.06913970401196
H           -6.64793910884465       -7.93215372186691       -0.77711174014885
H           -7.01604506047963       -6.02413989838235       -2.29720967218133
H           -5.74765937274270       -3.93255468858503       -1.98225019161878
H            3.90619864784071       -5.56030559388956       -1.50900365940125
H            5.33842027343284       -7.52249817981135       -1.14367445265245
H            7.28003758920932       -7.37434219353869        0.37116665578701
H            7.77488935391637       -5.24913254145680        1.52448637574552
H            6.31514813495525       -3.29468118224658        1.18743340627056
H            1.80378158697952       -2.59725077228991        2.34097316305531
H            0.33509289941670       -4.11813471818607        3.59690779084148
H           -0.34838161989105       -6.27476752705382        2.60617992791871
H            0.43482947759452       -6.88767918817750        0.34929278007024
H            1.84110037848113       -5.34137516209107       -0.93302056420872
H            6.05785194611861        6.61534072557186        0.03487362073721
H            5.62850020808671        5.09495620870543        0.80946929897699
H            5.51819264800943        5.26036239682219       -0.95018345319009
H            4.40235875495390        8.05727279227174       -1.01512036798302
H            2.67857301599613        7.70437546878598       -0.94371169522757
H            3.72939217311239        6.73398986199021       -1.97176873220062
H            3.99237658449419        6.33122819395333        2.30164067212690
H            4.56504988772140        7.81457975797113        1.53314607636028
H            2.83990025190021        7.46840882092537        1.60705065481722
