132
energy: -196.940741492985 gnorm: 0.002563919939 xtb: 6.7.1 (edcfbbe)
C           -1.26302102151496        0.35580599025160        0.14339255473356
C           -1.19132475000745       -1.04164257542350       -0.04612249048253
C            0.03321632343968       -1.69002430141697       -0.16648321682198
C            1.22052660260376       -0.96480094407813       -0.19317665787507
C            1.21294283397236        0.44788109999047       -0.19298097685145
C           -0.04375865839608        1.04563159535433        0.01662063277789
N           -0.08328124416612        2.39913748481599        0.11100707761589
N           -2.39385104666645       -1.72442293185792       -0.05847915097513
N            2.45768915424250       -1.57761323309808       -0.25450233669645
C            1.00191634948773        3.22845190149145        0.05593231306120
C            0.57958693827962        4.56530711513524        0.21492990895665
C           -0.86725638051663        4.51573744203279        0.33063574826098
C           -1.21315951202224        3.14840170554873        0.28885768801091
C            2.31781598107714        2.81748113482984       -0.13524317802075
C            3.25522817661931        3.85591661219107       -0.01824859807220
C            2.89847306169278        5.18768671479640        0.16650180513937
C            1.54700664865848        5.54873703039804        0.25048501771564
C           -1.88708180454782        5.43744024995882        0.45272569775218
C           -3.21563686456442        4.99323804465828        0.49774763560505
C           -3.49618961342111        3.63055167425038        0.48551683043496
C           -2.50130159404183        2.64104419666324        0.43308769119888
C           -4.31847292567667        6.04215598202117        0.58189833870017
C           -4.22489744447255        6.97126673607716       -0.63704505611984
C           -5.72374096235760        5.43381187255649        0.60415839566121
C           -4.13465045360725        6.85577030520689        1.87139885534534
C            2.81009485285274       -2.91647005614485       -0.07125952932982
C            4.11472625702720       -3.10218951331063       -0.44230374957001
C            4.62708880019217       -1.82724169342960       -0.85736411751564
C            3.56375845935540       -0.89573652737115       -0.70100229842736
C           -3.51584762258454       -1.18527437275007        0.52638802982339
C           -4.51292269899621       -2.19794246605535        0.59439681443077
C           -3.95489916066579       -3.35922045046083       -0.04370998366363
C           -2.67888144609291       -3.03380220248008       -0.43295220020075
C            5.85016753596374       -1.39588065115243       -1.30601895491712
C            5.99353129982010       -0.04656988259843       -1.68326206245288
C            4.90514459703613        0.86924094991692       -1.54674822345334
C            3.67593564234974        0.46665545729196       -0.94182095915761
C            7.21216731182078        0.41412116492282       -2.23021275814835
C            7.34730868198945        1.69590068980664       -2.68027683086552
C            6.25013156589584        2.56864332685226       -2.63367719094608
C            5.06476459407459        2.16213200159442       -2.08569485907745
C           -3.69283826458729        0.12317030496297        0.95362583055608
C           -4.90715720714334        0.36235783579634        1.66534908758045
C           -5.92956367228847       -0.63366807201599        1.72516688168045
C           -5.73388146642300       -1.90386972295810        1.14846512349126
C           -5.11259478658799        1.55881566193200        2.38188655711061
C           -6.28320841460846        1.80412736840493        3.04526854955909
C           -7.31925851269374        0.85870658039536        3.03052153670622
C           -7.13706501252814       -0.33600812122152        2.39553041303550
C           -4.66290074045698       -4.61452920767575       -0.27442018824778
C           -1.79182946724666       -3.87656023564134       -1.22995198572229
C           -1.62059798085067       -5.21949506384529       -0.90190877026278
C           -0.85488656519964       -6.04172377588230       -1.70613265946781
C           -0.23857165585343       -5.53470051255809       -2.83754145133120
C           -0.39776570146963       -4.19839796359665       -3.16770264174548
C           -1.17594245645614       -3.37505512263081       -2.37760696929759
C           -5.33783515100012       -5.23562955148866        0.77449261266066
C           -6.01695128412449       -6.42202915431493        0.56704337998071
C           -6.03858566312711       -7.00006786779432       -0.69176523232408
C           -5.37607991807568       -6.38494885951299       -1.74280035633420
C           -4.69375456244449       -5.20156770405197       -1.53909127153871
C            4.91364604315050       -4.33314340896363       -0.37480800623977
C            4.87796366297184       -5.26293519227923       -1.40819525923134
C            5.65740176376234       -6.40356199015510       -1.34917307890980
C            6.48687900824198       -6.62337015772058       -0.26224668552615
C            6.53451824822888       -5.69746664271613        0.76548853719146
C            5.75381528045241       -4.55720093385865        0.70945826155382
C            1.97855874106369       -3.88998276692483        0.63265921149412
C            1.36592311101902       -3.52897908018917        1.83528708607313
C            0.62974726384789       -4.45111732112345        2.55073957583953
C            0.50743803907745       -5.75277542824241        2.09022785999346
C            1.12982728648311       -6.12379496040263        0.91137146644799
C            1.85818245846149       -5.20056229797288        0.18243098557492
B            2.47492005987675        1.29958859808077       -0.43791166702583
B           -2.56470649803901        1.08965723995135        0.52398033713495
C            3.94319322483696        6.29227921393234        0.27086298024711
C            5.37950531800221        5.76748019952884        0.18672046631744
C            3.73466633292095        7.28760762033972       -0.87988051699989
C            3.77995584116171        7.01082734555018        1.61803074341147
H            0.06287577246086       -2.76260570479245       -0.23373694071128
H            4.29746301839197        3.58916119724253       -0.05719888399785
H            1.25780603573987        6.58225162397471        0.36451177210484
H           -1.65561968819987        6.49086499171427        0.49476652793384
H           -4.52149002384839        3.30163367261816        0.50155290843147
H           -5.01788618047043        7.71566290437725       -0.60342092307580
H           -3.27251038107473        7.49315773432450       -0.66955859940118
H           -4.32962944133125        6.39685391127337       -1.55525594793147
H           -6.46091904425523        6.23286905818749        0.65623181365029
H           -5.86283914979221        4.79218653746490        1.47099571177750
H           -5.91721326887701        4.85834886017648       -0.29805221799603
H           -4.17014766763851        6.19864111913207        2.73804717356593
H           -3.18247310147246        7.37907756605358        1.88053996898712
H           -4.92827234887330        7.59425294953467        1.96551143118503
H            6.68455694366616       -2.07630984986238       -1.39629891543458
H            8.03517573131063       -0.28343503326446       -2.30283292361099
H            8.28365631171886        2.03541230364625       -3.09869599388081
H            6.34610512652840        3.56296743818317       -3.04660329545115
H            4.21040103752164        2.81951964841114       -2.09344006608722
H           -6.53187055202383       -2.63182143363702        1.17164574465330
H           -4.30331699174101        2.26940255778192        2.43074338635405
H           -6.41362041196126        2.72456589590243        3.59656362680907
H           -8.24511918807433        1.07168678765238        3.54463105248623
H           -7.91185357462212       -1.09002790464066        2.41277080301857
H           -2.08849545697270       -5.61121408668252       -0.01145355770185
H           -0.74019847669140       -7.08409139943847       -1.44938629742786
H            0.36092604926793       -6.17861124787281       -3.46415740546749
H            0.07847638910579       -3.79786496736594       -4.05094395377532
H           -1.31349444492475       -2.33755088259204       -2.64819581647716
H           -5.30662839464952       -4.79230310377687        1.76034121640879
H           -6.52875814832075       -6.89823995697852        1.39167309671229
H           -6.56998666836117       -7.92620964088941       -0.85428578263152
H           -5.39627754136693       -6.83001900187918       -2.72798053511410
H           -4.18449455773000       -4.71934193941034       -2.36089178497009
H            4.24187754093333       -5.08148690903120       -2.26378309653136
H            5.62148387099084       -7.12258091912064       -2.15483518680069
H            7.09797151099209       -7.51284714769477       -0.21898997153013
H            7.18414751373133       -5.86302165239655        1.61265262440488
H            5.78877587571479       -3.83210624823997        1.50963289672635
H            1.47573666793679       -2.51893157285169        2.20359503574433
H            0.15606468351153       -4.15736295818526        3.47602299792577
H           -0.06800315906323       -6.47394285608121        2.65259120325390
H            1.04909699824662       -7.13965964439769        0.55435557938154
H            2.32528260205090       -5.49428351844050       -0.74443284501618
H            6.07361442779024        6.60093270424932        0.27973190314633
H            5.58947741884688        5.06591974947000        0.99096589844626
H            5.56631917192561        5.27979384951700       -0.76726266207405
H            4.48935824707324        8.07056277601624       -0.84023562216012
H            2.75613727220937        7.75736190994850       -0.82850996227621
H            3.81708517145100        6.77674518928908       -1.83734951159150
H            3.89193833115436        6.30215081105038        2.43607549643295
H            4.53699777453467        7.78482079278475        1.72565006415246
H            2.80319720109039        7.47857150939356        1.70512236583104
