132
energy: -196.930786807053 gnorm: 0.012420606019 xtb: 6.7.1 (edcfbbe)
C           -1.25086234964804        0.35436918304227       -0.08327428581417
C           -1.16863059319988       -1.04264827308289       -0.25546982742653
C            0.06054581937418       -1.69101742971340       -0.33914701335657
C            1.24971711293995       -0.96539395821822       -0.34348246446248
C            1.23637133818880        0.45207149838959       -0.32270284795872
C           -0.03096696589068        1.04722236944931       -0.16926481699219
N           -0.08566140796331        2.39982321560582       -0.06305628361662
N           -2.37161590144406       -1.72627654902032       -0.24704944012596
N            2.49373015302695       -1.57454037420066       -0.33559544153647
C            0.99177670502752        3.24035252452151       -0.04559835341438
C            0.54663230255700        4.57392948785872        0.08226477783745
C           -0.90420749605530        4.51233827537531        0.08358631548874
C           -1.23291609760238        3.14045747016276        0.03390967627661
C            2.32021098737866        2.83508129080911       -0.11959597496198
C            3.23739287935082        3.87610614643444        0.10519630925977
C            2.85794223390633        5.20381047491472        0.27104427656817
C            1.50231921700092        5.55980855520930        0.22021356914058
C           -1.94176079430972        5.42216876166843        0.11537944088448
C           -3.26663607604133        4.96370203869131        0.07520050169640
C           -3.53054175447663        3.59862578657299        0.09421228881616
C           -2.52078571438733        2.62358647566306        0.12728780513459
C           -4.38483054401149        5.99873178553486        0.04068640868676
C           -4.19100535375971        6.91330727664508       -1.17773858111617
C           -5.77980562073126        5.37330349322977       -0.06384114529619
C           -4.33436646556524        6.82998890237573        1.33098976745776
C            2.84551621237999       -2.90433291362016       -0.11309181049427
C            4.20841339367431       -3.03864238267395       -0.10748262576267
C            4.76162396350484       -1.74497221911911       -0.39551088525128
C            3.65650660646140       -0.85542172726596       -0.51028148893713
C           -3.44551494317883       -1.21284129737958        0.43666946696205
C           -4.36205333117248       -2.27189348263244        0.67228055150574
C           -3.81646456544255       -3.44101467881360        0.03950523453991
C           -2.63983726973738       -3.06354977124374       -0.56934941727183
C            6.03516141078908       -1.27481875119375       -0.59135297991528
C            6.21261666362001        0.06586013184800       -0.98518708649478
C            5.09177193246662        0.94361666418671       -1.09783190868277
C            3.78120235997304        0.50856991233724       -0.73509825474960
C            7.49974345201457        0.55001744304806       -1.30384655606105
C            7.68236815684491        1.81880481094966       -1.77496437332858
C            6.57133406280957        2.64996467998249       -1.97961454811112
C            5.31453760955384        2.22008448804833       -1.65133108892937
C           -3.64672076719307        0.10891892051931        0.80571383424420
C           -4.81896515464117        0.34268686083300        1.58538899591506
C           -5.75607572895249       -0.70931973717939        1.83263388876578
C           -5.52055063199028       -2.01516803158579        1.36233659382379
C           -5.07340102403243        1.59585594482336        2.17788038456674
C           -6.21194040126434        1.83187038477337        2.89810906552866
C           -7.16334758205860        0.81659433404862        3.07864240871903
C           -6.92799033215408       -0.42749499082674        2.56881851341743
C           -4.46747341689130       -4.74680057601287        0.15355023005198
C           -1.99150501579432       -3.71196561434975       -1.70009751030519
C           -2.09179851557361       -5.08819076427510       -1.91612450891336
C           -1.63383831908083       -5.65685066110179       -3.09027744808786
C           -1.04234044813752       -4.87357307639987       -4.06928966759091
C           -0.92574246324747       -3.50669699150225       -3.86374281084017
C           -1.40648426844236       -2.92972554550665       -2.70608443306779
C           -3.82909836886785       -5.78610268797242        0.83010128779035
C           -4.48005616173627       -6.98742460562235        1.04205001042592
C           -5.77859439472284       -7.16783200326029        0.58959795911842
C           -6.42256640753681       -6.13785970833114       -0.07856135572448
C           -5.77473643358755       -4.93462177204695       -0.29101262500960
C            4.97030492498263       -4.24756186127814        0.19465623196066
C            4.67885058598710       -5.47270891164988       -0.40021611328810
C            5.40675265409062       -6.60198363711841       -0.07426424020507
C            6.43625757307893       -6.52955385588694        0.84994799160001
C            6.73341136941847       -5.31543846319037        1.44638204072953
C            6.00986299511059       -4.18340221196283        1.12001307423314
C            1.94616815696099       -4.03941560284194        0.14160076054251
C            1.80551135603980       -4.51666921757463        1.44519563635448
C            1.08468214831404       -5.67127474100770        1.69539694470821
C            0.51627342453370       -6.37477167880098        0.64305276606054
C            0.66435028039885       -5.91188768815306       -0.66049794729239
C            1.36573755942190       -4.74810736841889       -0.91211786500822
B            2.50749863058150        1.31988800680897       -0.42488013964069
B           -2.56337236601196        1.07877482282032        0.27668443531406
C            3.87931134772915        6.30994877606920        0.51032058599474
C            5.32210013456148        5.79740262358379        0.56212757348380
C            3.78624857779953        7.33761601034167       -0.62714139102745
C            3.57445079906871        6.99035784935051        1.85339315237738
H            0.07794330713459       -2.76646409768724       -0.37906417474007
H            4.27946214797896        3.61463797780734        0.17313052581803
H            1.19918019078956        6.59108009542869        0.31952276555970
H           -1.72667494677124        6.47925582469098        0.15169341549204
H           -4.55072485358266        3.25402656955214        0.06520027191881
H           -4.99766508622832        7.64170262329637       -1.23081365610149
H           -3.25030666532885        7.45448023234305       -1.12855073429940
H           -4.19786408531598        6.32457756292934       -2.09288290470305
H           -6.52495936243466        6.16583124797572       -0.10607566231487
H           -6.00243707602182        4.75095215061125        0.79979438374739
H           -5.87556224411549        4.77496180538952       -0.96727222315576
H           -4.46030177853382        6.18395276603930        2.19784016440598
H           -3.38700423946168        7.35271504465353        1.43155137015750
H           -5.13300930446963        7.56926931428697        1.33228302611420
H            6.89535751997678       -1.92114903742134       -0.49176950563412
H            8.34228578551316       -0.11784713242599       -1.18830199609860
H            8.67171877485955        2.17615781778461       -2.02022793121370
H            6.71535274986138        3.62998096012392       -2.41176416437925
H            4.46003351181054        2.84520084389707       -1.85701980049793
H           -6.24408674084287       -2.79399002194404        1.55741801772802
H           -4.32989918503221        2.36989677228425        2.07788440061796
H           -6.38158505107808        2.80216313091841        3.34252958090029
H           -8.06503483961174        1.01885501342376        3.63779338292836
H           -7.63543331133284       -1.22936669729108        2.73075027711480
H           -2.53281413832665       -5.72210881822391       -1.16224455771563
H           -1.74118615873584       -6.72298632255136       -3.24095151469584
H           -0.68222729480172       -5.31984844906603       -4.98415127817512
H           -0.47342853499378       -2.87975989296570       -4.62130770584712
H           -1.34644742229894       -1.85622326336584       -2.59841033436365
H           -2.82359446411061       -5.64115441112566        1.20599623824222
H           -3.97583466649809       -7.78310700347424        1.57292915058858
H           -6.28864647801082       -8.10368041671447        0.76380826165867
H           -7.43703026290979       -6.27215263482252       -0.42975281252529
H           -6.27826845509873       -4.13329283575077       -0.81319323194415
H            3.88525712210643       -5.53945693267203       -1.12928506456616
H            5.17050472619433       -7.54508320109440       -0.54623143415069
H            7.00323591831220       -7.41362256666282        1.10465567426078
H            7.53016157101480       -5.25273318750856        2.17349452499973
H            6.23552318718097       -3.24137624886255        1.59982719989137
H            2.27219681635167       -3.98273958463028        2.26274320292449
H            0.98112459330385       -6.02960188367120        2.71471601592286
H           -0.03132245952208       -7.28594052736095        0.83401312483883
H            0.24311481869494       -6.46528020113726       -1.48804221040592
H            1.46974998259684       -4.39008745677858       -1.93023883079285
H            5.99467912490106        6.63766236916573        0.72663266133692
H            5.46126311153699        5.09284552314967        1.37934249054869
H            5.60677179334034        5.31791296341791       -0.37129782487435
H            4.50773000989613        8.13668857335263       -0.46916317021620
H            2.79658936361965        7.78161139195426       -0.68542083989703
H            4.00264190988947        6.86140656332330       -1.58129283087656
H            3.60109252731780        6.25854717405442        2.65859062818164
H            4.31654402227898        7.75884168001910        2.06129008674331
H            2.59378887461637        7.45828696881862        1.85204235161914
