132
energy: -196.934763190886 gnorm: 0.002951294632 xtb: 6.7.1 (edcfbbe)
C           -1.25420640244541        0.33197066792674       -0.00949197828617
C           -1.17828781454190       -1.06201383935479       -0.21372603798307
C            0.04888377571076       -1.70547884879077       -0.34595371653932
C            1.23700718397212       -0.97940456809417       -0.34065077850948
C            1.22599267625291        0.43557119480853       -0.30935534925239
C           -0.03645556737896        1.02746746923558       -0.11910870716789
N           -0.08564458387955        2.38004411294280       -0.00777831773668
N           -2.37871747918310       -1.75030397012095       -0.20041926289012
N            2.47923139731207       -1.58797877915987       -0.35960345314452
C            0.99439956213848        3.21778160436673       -0.02309861331209
C            0.55937581049720        4.55094982010167        0.13281456788965
C           -0.88985794841579        4.49126072086758        0.20607491722459
C           -1.22391208835949        3.12141144440380        0.15238354771464
C            2.31830757070804        2.81333732269566       -0.16125069909363
C            3.24507999738407        3.85404016518823        0.00981567245629
C            2.87552051331445        5.18360791847404        0.18584914368624
C            1.51999446863995        5.53856179370538        0.21402519497922
C           -1.92099005700511        5.40418580593852        0.29955078174917
C           -3.24673351319024        4.94922385684731        0.31993822648635
C           -3.51444916336956        3.58421579287849        0.31969868613291
C           -2.50933096590080        2.60503204263329        0.28448257473762
C           -4.36197018325466        5.98772320512358        0.35640902299187
C           -4.25345128685877        6.87979035816528       -0.88869272333972
C           -5.76082503362537        5.36389997349104        0.36861341211135
C           -4.21470827370522        6.84148510575143        1.62409837224083
C            2.83249306530603       -2.92123624158438       -0.15204472177714
C            4.18671263190702       -3.07329611140781       -0.28777456044987
C            4.72211043843152       -1.78194448899977       -0.62861881626643
C            3.62442761672741       -0.87923582991302       -0.64102695883956
C           -3.46443477308266       -1.23065363756148        0.46156715597097
C           -4.41512227397789       -2.27178616650144        0.63480896818718
C           -3.87082181054832       -3.43625095320677       -0.00412789854994
C           -2.65566185292094       -3.08018497518895       -0.53606127056514
C            5.98134411821127       -1.32690110368040       -0.92711051891910
C            6.14136732619220        0.01743227750927       -1.31633263029287
C            5.02583242945130        0.90856159643147       -1.33013029360401
C            3.74189729149726        0.48462413114558       -0.87109299760657
C            7.40637387063691        0.49327787346255       -1.72621733859054
C            7.56668788362951        1.76695985786527       -2.19113354394163
C            6.45276249529273        2.61294608379890       -2.29759234989583
C            5.22005193081420        2.19162639459883       -1.88034751842381
C           -3.65078875141226        0.07924896735822        0.87881944303111
C           -4.82569518426387        0.30122598464172        1.65870645757637
C           -5.79916359788318       -0.73133701000012        1.83185531720472
C           -5.59148144189254       -2.01624185217680        1.29430994064860
C           -5.03761800319803        1.52037122948363        2.33443214027283
C           -6.17041649606127        1.74712695077482        3.06644626243890
C           -7.16065616673846        0.75849791208190        3.16912966911326
C           -6.96856429019530       -0.45537767572472        2.57479844659815
C           -4.57128881043924       -4.72434743863177       -0.02523313801933
C           -1.91023866102384       -3.79425849031211       -1.56563702527065
C           -1.84227118876663       -5.18642264029285       -1.59544696576589
C           -1.22803475057399       -5.83857172428804       -2.64871751469044
C           -0.65554124688939       -5.11913540189234       -3.68295404056042
C           -0.72505168833441       -3.73492346762640       -3.66972273420923
C           -1.35611287244925       -3.07868928672787       -2.63221657545316
C           -4.12621694633946       -5.77386895142049        0.77433777261530
C           -4.81607148026347       -6.97172131290162        0.80406175460999
C           -5.96312823718997       -7.13311330140375        0.04403675351873
C           -6.42159441461258       -6.08769621316295       -0.73932718306595
C           -5.73372561461373       -4.88759170148263       -0.77029573934861
C            5.01143929952593       -4.24968792023189       -0.01799670631343
C            4.78678799687001       -5.48482870541806       -0.61749124776821
C            5.60286957341538       -6.56369742769198       -0.33037898199651
C            6.65875299323631       -6.42695587763717        0.55391097151019
C            6.89632228127973       -5.19965085709978        1.15044273280524
C            6.08208285017077       -4.12052928610824        0.86633705567716
C            1.89691724517321       -3.95095205492702        0.32044369157955
C            1.40977760394678       -3.88532329027128        1.62384922147281
C            0.57363007747132       -4.87457432695961        2.10612803166918
C            0.23330953837731       -5.95076788124468        1.30200029433781
C            0.71337573088010       -6.02099437641716        0.00667002557813
C            1.52905494126888       -5.02089636940099       -0.48902225288306
B            2.49366470757730        1.29915073742654       -0.47315468639262
B           -2.55621318323241        1.05557929410906        0.38915246353067
C            3.91241500599169        6.29109329002725        0.33447737287211
C            5.35227716696939        5.76875242688534        0.32785929572751
C            3.75986028431825        7.27378348585442       -0.83566776214360
C            3.68392358582407        7.02486743481380        1.66402414439992
H            0.07299969770370       -2.77658197973834       -0.43859819606755
H            4.28863852945602        3.59079422133046        0.02250572540110
H            1.22151961289605        6.57012802534519        0.32409827732399
H           -1.70031894988513        6.45998005329578        0.33867413821026
H           -4.53623141103456        3.24381941429828        0.32980319915874
H           -5.05383612859266        7.61693113667872       -0.89361446659681
H           -3.30505855555288        7.40883341718707       -0.91934311620544
H           -4.33526371720200        6.27589731990949       -1.79020614160698
H           -6.50750891195950        6.15565905306229        0.38769372912219
H           -5.90862016105716        4.74185053758253        1.24824779994369
H           -5.93148923894385        4.76471606744178       -0.52305240904573
H           -4.26913312432860        6.21081067962247        2.50933585901378
H           -3.26594466573347        7.37089904757808        1.64178159690146
H           -5.01432530043207        7.57755963111988        1.67517841771656
H            6.83723397975235       -1.98574351584369       -0.90425359053161
H            8.24670375684302       -0.18580659896558       -1.68357978006481
H            8.53846794453981        2.11822136058308       -2.50620603682777
H            6.57521523215109        3.59797892318727       -2.72496731271952
H            4.35840365529018        2.82734422858596       -2.00873973746776
H           -6.34032106455816       -2.78476450008745        1.42335484032635
H           -4.26294686154616        2.26897458095042        2.29314446437330
H           -6.30536497234278        2.68769573470431        3.58172342244508
H           -8.05709954191626        0.95537058788537        3.73846829765644
H           -7.70516771668165       -1.24057673420513        2.67731438387631
H           -2.27217484562170       -5.76069198085480       -0.79189955538327
H           -1.19780463865475       -6.91884555934363       -2.66179631584507
H           -0.16616224456567       -5.63171339596235       -4.49799873109401
H           -0.29698973190499       -3.16351709443030       -4.48059274760693
H           -1.43381571084108       -2.00098184702727       -2.65442191894337
H           -3.24251978012984       -5.63732897018797        1.38356377708399
H           -4.46187755081607       -7.78068636036796        1.42686415213271
H           -6.50137554692386       -8.06917346559050        0.06762277021696
H           -7.32155563371201       -6.20675544952237       -1.32561741727827
H           -6.09081203793819       -4.06970317435048       -1.37922008666843
H            3.98224656639565       -5.59817624141619       -1.32630564597587
H            5.41636455344490       -7.51621810114539       -0.80518851585623
H            7.29567750715568       -7.27089120959309        0.77479048613936
H            7.71905248647984       -5.08424716271333        1.84133134841632
H            6.26115123629054       -3.16752258838733        1.34302296551312
H            1.68828964112309       -3.05243765495891        2.25209866139312
H            0.19579738245233       -4.81194020096512        3.11682500978647
H           -0.41006936406746       -6.73094809392469        1.68232084717867
H            0.45220212388166       -6.85790867848506       -0.62303119282985
H            1.85920202369041       -5.05343057417183       -1.51753977748913
H            6.03903685596978        6.60516538534103        0.44363171879688
H            5.52341247506140        5.07849639685096        1.15085046447151
H            5.58763779668967        5.26893070044042       -0.60856782826288
H            4.50009158927891        8.06761731125739       -0.75818244795388
H            2.77328345968215        7.72917056160077       -0.84742370769741
H            3.90691009330859        6.75615774905149       -1.78175054959483
H            3.76250343657868        6.32679870974907        2.49539262170553
H            4.43247424526303        7.80389091907830        1.79594527823156
H            2.70251068728099        7.48933742968980        1.70185707810886
