132
energy: -196.931343260730 gnorm: 0.002880193483 xtb: 6.7.1 (edcfbbe)
C           -1.25327006974589        0.35431235800024       -0.08742722415212
C           -1.16985498569419       -1.04192942665339       -0.25465280521614
C            0.06037173397952       -1.68903125918282       -0.34009847509141
C            1.24943333792066       -0.96349127800427       -0.33871073789024
C            1.23455739969153        0.45289163184922       -0.31722440272879
C           -0.03305911581139        1.04831927604208       -0.17141999505564
N           -0.08917394355941        2.40192510326607       -0.07285807669226
N           -2.36869673625600       -1.73304162781545       -0.24060883619768
N            2.49187959285829       -1.57570337381959       -0.33074876561047
C            0.98826507919347        3.24103428260124       -0.04434571791933
C            0.54505560309256        4.57371450754972        0.09010744096440
C           -0.90597904479668        4.51261758077516        0.09551557168178
C           -1.23392470726187        3.14166729889459        0.03786151068088
C            2.31682013246337        2.83648153122478       -0.12058353161594
C            3.23347952839311        3.87656046332276        0.10125065806783
C            2.85402474428468        5.20416187154754        0.27070553200581
C            1.49953554740165        5.56046232925620        0.22778227577037
C           -1.94194419224804        5.42409087117003        0.12988303506836
C           -3.26572397276785        4.96575790018159        0.08756737107331
C           -3.53081709647066        3.60017484775654        0.09956480109625
C           -2.52295406573164        2.62459427219600        0.12585485595233
C           -4.38400701062527        6.00044909635598        0.05259559951728
C           -4.18885070429550        6.91028578120859       -1.16903738447597
C           -5.77670786194734        5.37162307512319       -0.04848276081122
C           -4.33066260372878        6.83584097637443        1.33945407506814
C            2.84524623249528       -2.90503735608287       -0.11155070108825
C            4.20874040780074       -3.03762445400989       -0.10899757528726
C            4.75984831358227       -1.74242135994407       -0.39739984094039
C            3.65392590798440       -0.85480559488400       -0.50711944918200
C           -3.44746119603732       -1.21155417752307        0.43188862272490
C           -4.36897634882397       -2.26581514764374        0.66855217171282
C           -3.82371999602469       -3.43870724624046        0.04079487198607
C           -2.64101700745226       -3.06918625489498       -0.56270800887786
C            6.03445581020672       -1.27496192173871       -0.59559394260019
C            6.21182841575010        0.06572008569416       -0.98849182554668
C            5.09087025255164        0.94219474366421       -1.09903166619356
C            3.77991871136132        0.50942339061137       -0.73161053324472
C            7.49852822606533        0.55379938985881       -1.30832170018958
C            7.67678122303534        1.82256868900399       -1.78005621985808
C            6.56375732187776        2.65041639100258       -1.98727183020262
C            5.30827640365137        2.21846005625094       -1.65757049109691
C           -3.64931895172737        0.11030927504414        0.80093391179236
C           -4.82034627108744        0.34461047059594        1.58376388105493
C           -5.76068180300491       -0.70359604605057        1.83043084081357
C           -5.52893828749425       -2.00891249156184        1.35608067406871
C           -5.06376500598664        1.59731258536263        2.18373699590962
C           -6.19767676745622        1.83683992753399        2.90996158272198
C           -7.15461785134607        0.82687144337877        3.08791730641216
C           -6.92889159291063       -0.41661855224983        2.57251163277358
C           -4.47641472572387       -4.74225341394400        0.15043713826976
C           -1.99195130855228       -3.72306258508101       -1.69227963821837
C           -2.08685276352925       -5.09853759004623       -1.90646489010221
C           -1.61510036799582       -5.66724418939024       -3.07487941063841
C           -1.01839062687911       -4.88628778719837       -4.04928966956532
C           -0.91973233995714       -3.51941487107278       -3.85220177783271
C           -1.40997815072014       -2.94241894621910       -2.69810341656120
C           -3.83758789768873       -5.78345478029249        0.82377195591699
C           -4.48361046443777       -6.98904144061489        1.02260490854092
C           -5.77540368504567       -7.17003777555574        0.55736679545997
C           -6.41808633674003       -6.13992815802881       -0.10817471066082
C           -5.77610963163984       -4.93087488271580       -0.30686458681267
C            4.97324109869527       -4.24618782329506        0.18866098193992
C            4.67288792207350       -5.47058748162093       -0.40221703599483
C            5.39768497080257       -6.60168116696004       -0.07701216487695
C            6.43290441656270       -6.52920251810258        0.83951142148135
C            6.74569632857571       -5.31444608883745        1.42643154253285
C            6.02400696211252       -4.18139844883234        1.10297844253872
C            1.94433321034931       -4.04027993615390        0.14853766578292
C            1.78250550365559       -4.49437625155857        1.45207486099910
C            1.05943263276391       -5.64593390826521        1.70598674569132
C            0.51604760408028       -6.36876739908668        0.65935613006457
C            0.68647750662065       -5.93166161095035       -0.64231513244534
C            1.38644661032218       -4.76807192946163       -0.89955534197179
B            2.50620721077940        1.32109816987233       -0.42148705493310
B           -2.56641027240191        1.07955704971901        0.27093885955339
C            3.87729088993984        6.30960348656213        0.50363561831145
C            5.31781686736577        5.79222325204643        0.55237417766255
C            3.77970917548210        7.33203948763787       -0.63767137082581
C            3.57544065060111        6.99486183378166        1.84433291357767
H            0.07928562004887       -2.76334433513528       -0.38344215815029
H            4.27562130433033        3.61502259299681        0.16364050093155
H            1.19590644187472        6.59084658384638        0.33081980341323
H           -1.72566014508099        6.48061847162589        0.17038549648527
H           -4.55106675487744        3.25636343570304        0.06950733819076
H           -4.99465660203702        7.63930586887491       -1.22701618147606
H           -3.24766925052362        7.45058290530242       -1.11951058696361
H           -4.19350902192880        6.31788397893489       -2.08186181795796
H           -6.52598212900141        6.15989788300833       -0.09042379122047
H           -5.99400904736514        4.74929227572620        0.81646804811596
H           -5.87037402822629        4.77171386001931       -0.95073073259892
H           -4.45410416698149        6.19305016333831        2.20870602850695
H           -3.38269073212147        7.35817196160519        1.43500874025317
H           -5.12855380024322        7.57567830643549        1.34088354693998
H            6.89234905835803       -1.92403511080426       -0.49811439304333
H            8.34216188479227       -0.11240997369274       -1.19219028529097
H            8.66518058522034        2.18356211872703       -2.02462829897991
H            6.70560421039427        3.62922202680464       -2.42335228030390
H            4.44990784405930        2.83775177359876       -1.86369737643727
H           -6.25272834620412       -2.78799089016980        1.54724168916886
H           -4.31398887442881        2.36504786986569        2.08397300187872
H           -6.35929185620761        2.80522220097758        3.36181564824376
H           -8.05318321799848        1.03335041493748        3.65107661217503
H           -7.63981493962945       -1.21510564115600        2.73397963276036
H           -2.54544768072727       -5.72723425131120       -1.16187917503585
H           -1.71885154483723       -6.73238991671140       -3.22618454836921
H           -0.64837874708208       -5.33451002213224       -4.95957947165407
H           -0.47410793419957       -2.89401458577050       -4.61187744028827
H           -1.36611798957758       -1.86957385772734       -2.59224445361875
H           -2.83764248109435       -5.63052381395121        1.20681912769637
H           -3.98155288073407       -7.78790031127972        1.54951057719019
H           -6.28160815796490       -8.11030439049879        0.71950839509607
H           -7.42676905461022       -6.27764446849488       -0.46908595847681
H           -6.27522987567365       -4.12623174376949       -0.82703517842429
H            3.87470127730156       -5.53216987824636       -1.12591142315918
H            5.15369412151876       -7.54551845131643       -0.54276135982046
H            6.99452954923740       -7.41559117143018        1.09500957825237
H            7.55218498287855       -5.25173048366615        2.14331298365766
H            6.25510753663702       -3.23835779364564        1.57660948685726
H            2.23518247189444       -3.94399846265391        2.26357234061845
H            0.93817857217646       -5.98978960179429        2.72214504547543
H           -0.03104061376025       -7.27958102482158        0.85379564152754
H            0.28367758569462       -6.50421520761600       -1.46221441645770
H            1.51154333678247       -4.42354939920609       -1.91659578709988
H            5.99526152216964        6.62814726675707        0.71713466473415
H            5.45384729280809        5.08515025474541        1.36738119848949
H            5.59736335929485        5.31307393354164       -0.38274539573564
H            4.50373586353908        8.13079826069565       -0.48933281081656
H            2.79017156235409        7.77771090854961       -0.69065700751601
H            3.98732093186253        6.85047390499199       -1.59114729021731
H            3.60651797862454        6.26678409739783        2.65234079988423
H            4.31488815584055        7.76691174517473        2.04698461163963
H            2.59314309860028        7.45909349206018        1.84301240287219
