132
energy: -196.938028255287 gnorm: 0.009568095047 xtb: 6.7.1 (edcfbbe)
C           -1.24191160605118        0.34356582403081        0.13690553227299
C           -1.17084593154132       -1.05120566479108       -0.07175482022275
C            0.05452427111221       -1.69415686076354       -0.21173427293291
C            1.24020883327825       -0.96649476887165       -0.22093378584706
C            1.23202581377860        0.44559849767045       -0.20535844476788
C           -0.02485315265117        1.03874748191264        0.01194326531769
N           -0.06612307238925        2.39093517033950        0.12007746241528
N           -2.37038694326600       -1.74045017527153       -0.07879112052129
N            2.47949824101151       -1.57463055019977       -0.27202217195052
C            1.01772723335901        3.22300385723295        0.06338700682232
C            0.59260977713798        4.55795606867638        0.23219091281413
C           -0.85423042702197        4.50452104545204        0.35512742400228
C           -1.19597257583240        3.13645120414071        0.30780663107289
C            2.33334577589579        2.81723739731985       -0.14175141048559
C            3.26904139541657        3.85863930808346       -0.03050911141315
C            2.90983876053131        5.18778651556645        0.16640302158122
C            1.55765926122684        5.54378510161147        0.26634444821467
C           -1.87748508951152        5.42139931224667        0.48239124482492
C           -3.20412313748021        4.97106954237909        0.52851265980133
C           -3.48002393932751        3.60801998385024        0.50946744562102
C           -2.48174209921102        2.62345285162640        0.45064476677783
C           -4.31229632824948        6.01281417663225        0.61747354946715
C           -4.23805308924883        6.93003591203441       -0.61152195923862
C           -5.71329559271570        5.39533536784157        0.66169420745005
C           -4.11937486421057        6.83796342064388        1.89746658351346
C            2.83039543204878       -2.91138406496183       -0.07534055898706
C            4.13875772057609       -3.09642435397414       -0.43682939336137
C            4.65160213727500       -1.82227800781626       -0.86023036848972
C            3.58529006613038       -0.89260673913600       -0.71772969331492
C           -3.48777851626407       -1.20492589633291        0.51799870724496
C           -4.47999992816852       -2.22001681787028        0.60004464600241
C           -3.92169136667038       -3.38187039216795       -0.02889981410390
C           -2.65608054157950       -3.05668721552017       -0.44202589790647
C            5.87544611802889       -1.38637760197235       -1.30630232273604
C            6.01482745938630       -0.03853271083927       -1.68943039035695
C            4.92133319319235        0.87411478311419       -1.56466368969082
C            3.69264653010565        0.46988559793704       -0.96038721831600
C            7.23546213136151        0.42975702030486       -2.22777229086892
C            7.36260879246467        1.70826794205170       -2.68824022090378
C            6.25723188306987        2.57247762239562       -2.66245896926772
C            5.07301398645008        2.16329093810403       -2.11501376011717
C           -3.66692112050071        0.10076762262253        0.95340255465990
C           -4.88446088482838        0.33634527087294        1.65995332626563
C           -5.90879927902101       -0.65895430226046        1.71456119512955
C           -5.70190430862405       -1.93419192427637        1.15729555800165
C           -5.09321489430903        1.53544151444321        2.37219084025465
C           -6.27747703848517        1.79444464632717        3.00403329243247
C           -7.32097863003953        0.85669475436117        2.96791036153701
C           -7.12934134625874       -0.34782403127066        2.35654656225808
C           -4.64951547569357       -4.63602548164710       -0.25617992115609
C           -1.80905831804028       -3.90617361076256       -1.27140144892783
C           -1.70760685018850       -5.26686435328402       -0.99174123882059
C           -0.98043971763322       -6.09984686964472       -1.82144377731987
C           -0.33638698815013       -5.58780451482992       -2.93391389503387
C           -0.43486119042306       -4.23513076496567       -3.22280425950165
C           -1.17185048688630       -3.40073134409494       -2.40636564892084
C           -4.91221830743212       -5.50589881491903        0.80125372579304
C           -5.60267242373661       -6.68382601554279        0.57820577801452
C           -6.05897828696790       -6.98962684406119       -0.69203866703846
C           -5.81509869734118       -6.12113520258714       -1.74204025794083
C           -5.10597989356608       -4.95365044954419       -1.52640504638367
C            4.95273867331162       -4.31260079523810       -0.32262746207042
C            4.83387480686367       -5.35440210524087       -1.23401241810037
C            5.62530388030876       -6.48295256698672       -1.11253472703188
C            6.54841776280394       -6.57643952260952       -0.08581426467116
C            6.69073227618420       -5.53018114483027        0.81066074815691
C            5.89966754530371       -4.40371666410907        0.69292884323470
C            1.96744962221375       -3.85971624194201        0.62819330859754
C            1.35839215163972       -3.47379599445346        1.82273004175407
C            0.55000300854480       -4.35665507869020        2.51358435405520
C            0.35693770447325       -5.64474951885061        2.04159497823250
C            0.98099244272756       -6.04475029436419        0.87262769142291
C            1.77727542023432       -5.15989339721883        0.16893146846149
B            2.49169094405025        1.30076255276024       -0.45140697257682
B           -2.54152064487291        1.07204443442921        0.52944395874330
C            3.95007263866800        6.29811865304908        0.25969981122058
C            5.38912701534369        5.78103064989617        0.18139140443330
C            3.73273285646861        7.27843795816301       -0.90226422456924
C            3.78780822274740        7.03214094963599        1.59876685519946
H            0.08323367373382       -2.76448249078608       -0.30532743345105
H            4.31195004021755        3.59653536599312       -0.08469001567785
H            1.26636050173692        6.57553941249632        0.38947654553535
H           -1.65067190819183        6.47570811313707        0.52603534644617
H           -4.50397720996960        3.27567839101484        0.52409661006070
H           -5.02974941862650        7.67516714629006       -0.57301008014492
H           -3.28516268312674        7.45005551575175       -0.66391778838074
H           -4.35698765344482        6.34605515581063       -1.52180524915195
H           -6.45514345869665        6.18971534961355        0.72147095914285
H           -5.83535464679935        4.75587537731168        1.53277246113739
H           -5.91645817419785        4.81526236112761       -0.23538136302307
H           -4.13540401816117        6.18710148316457        2.76919178927549
H           -3.17293272312955        7.37150666832689        1.88933419260130
H           -4.91919812746741        7.56881156364412        1.99784876249854
H            6.71494893419264       -2.06220831418361       -1.39240053985603
H            8.06720768338714       -0.25939771580021       -2.28492629065008
H            8.30092385360847        2.05199832399476       -3.09886328698544
H            6.34647636785874        3.56107985936485       -3.08943897898210
H            4.21213416557150        2.81259399829390       -2.13157138896204
H           -6.48799100236237       -2.67453558678182        1.19058951462475
H           -4.27506298923646        2.23492604785995        2.43759200976672
H           -6.41367217160785        2.71925069853794        3.54617615805444
H           -8.26082222390647        1.08307487502223        3.45034463221189
H           -7.90885234489475       -1.09740773068943        2.36596108262358
H           -2.19631694184200       -5.66570810114274       -0.11663523743739
H           -0.92097234014211       -7.15323526545442       -1.59828447996303
H            0.23257989236420       -6.23958113974830       -3.57749822508055
H            0.05948898517401       -3.83084320355332       -4.09387448175010
H           -1.25987205758895       -2.35199510092650       -2.64754004618296
H           -4.55830144225369       -5.26252933910097        1.79209043764246
H           -5.78501690042448       -7.36374281189747        1.39838732590482
H           -6.60374418412728       -7.90655288366424       -0.86439196209554
H           -6.17315674396660       -6.35510554853007       -2.73785085064258
H           -4.90666063767579       -4.27576994008043       -2.34640064087140
H            4.13019936300116       -5.26990460531269       -2.05087580779173
H            5.52202219120070       -7.29117484464296       -1.82204113552600
H            7.16477413709817       -7.45814998532448        0.00789814077073
H            7.41980993414126       -5.59376572692514        1.60548805255277
H            6.00555979850666       -3.58443367497542        1.39013244517495
H            1.51480027339726       -2.47504057392332        2.20699929976789
H            0.07393838482292       -4.03726719626706        3.42713501440881
H           -0.27823220929162       -6.33332701754898        2.58128686293415
H            0.84529237907223       -7.05115065426170        0.50503161578961
H            2.23814623062781       -5.47364536342807       -0.75201265845100
H            6.07852990099039        6.62085329365278        0.25255566989113
H            5.60528326478227        5.09990144673710        1.00088380373804
H            5.57833307951367        5.27355908461336       -0.76144274510654
H            4.47145124584772        8.07481797655546       -0.86490000640358
H            2.74449367834507        7.72847822378081       -0.86284246818934
H            3.83070063117374        6.75909916394757       -1.85317828503598
H            3.90118889509354        6.33303500338072        2.42441699764901
H            4.54547143708553        7.80688783938129        1.69600368846553
H            2.81175648829191        7.50192579506800        1.68251176932757
