132
energy: -196.935507680124 gnorm: 0.001128463334 xtb: 6.7.1 (edcfbbe)
C           -1.24994329880096        0.32709485108001        0.04833235927600
C           -1.17524284522902       -1.06805392420320       -0.14727586837696
C            0.05091916480311       -1.71349034258344       -0.27340720370109
C            1.23700964297863       -0.98514073451181       -0.29219564344680
C            1.22606474330131        0.42916872064361       -0.28364144527343
C           -0.03378122195510        1.02232623762336       -0.07951216983962
N           -0.08193333695630        2.37539603458374        0.01855975796804
N           -2.37664815770591       -1.75266419076169       -0.14487181711542
N            2.47747103296572       -1.59358043729414       -0.32968636364332
C            0.99800703788387        3.21195802329491       -0.02700766557399
C            0.56527701319616        4.54553595684458        0.13260520890021
C           -0.88168491785039        4.48645105673124        0.24303099536577
C           -1.21671194697017        3.11677769351941        0.19830614446060
C            2.31868658224722        2.80802095034021       -0.19881914609071
C            3.24758754547955        3.85299716354913       -0.06693271819433
C            2.88008747228455        5.18293031113126        0.11039125548976
C            1.52557193377996        5.53516273816049        0.18062150149881
C           -1.90905518914461        5.39947476903188        0.36906477852115
C           -3.23390308812444        4.94475889999556        0.41981352250534
C           -3.50324242683542        3.58020678944597        0.40867654879179
C           -2.50013804872729        2.60057456522188        0.34970732157790
C           -4.34652572514749        5.98164995572561        0.51622936614061
C           -4.26972013722555        6.92097987383547       -0.69575088107689
C           -5.74544815959470        5.35854493600587        0.54105824756505
C           -4.16356212462164        6.78548660939338        1.81177396974660
C            2.82828646847419       -2.92575288261982       -0.11722545283434
C            4.17054434720654       -3.09369221889674       -0.33286095117131
C            4.69919488544465       -1.81106164878410       -0.71632267833321
C            3.61019246238433       -0.89756399247751       -0.67974273753441
C           -3.47701720472156       -1.22830211724353        0.48747456196860
C           -4.45094498223316       -2.25707440451220        0.60627446443269
C           -3.90108698644585       -3.41629089424121       -0.03965612551515
C           -2.65888659224149       -3.07154875722283       -0.50989289370345
C            5.94689205623630       -1.36569304173377       -1.07318188867948
C            6.09855316251298       -0.02319989628910       -1.47250355455140
C            4.98884549053856        0.87576577405410       -1.44396665390186
C            3.72270216334692        0.46399527685726       -0.92695415356217
C            7.34865518666368        0.44559629684632       -1.93480309755899
C            7.49647280779328        1.71654210805791       -2.41108752840319
C            6.38392670818349        2.56811988962256       -2.47701882810749
C            5.16695056527296        2.15536925620666       -2.00796144002529
C           -3.65664651601783        0.07813232298390        0.91873177483841
C           -4.84565453618674        0.30150244014714        1.67635769949569
C           -5.84077677302345       -0.71734478665611        1.79973845787144
C           -5.64331926701306       -1.99166537942314        1.23281967791288
C           -5.04782157419905        1.50604527912787        2.38043148760575
C           -6.19142718072426        1.73530015954060        3.09464701866481
C           -7.20265565151173        0.76457285366371        3.14693758308932
C           -7.02146079185803       -0.43636881217126        2.52368939653036
C           -4.61440143051313       -4.69290497208431       -0.16044294170487
C           -1.86487130266023       -3.79189337936093       -1.49935296423222
C           -1.72098095841626       -5.17641824132639       -1.46527428986366
C           -1.04336556574796       -5.83493516074903       -2.47493233572557
C           -0.48959165218334       -5.12683739886749       -3.52714454917239
C           -0.63450151144336       -3.74980360971139       -3.57565666015708
C           -1.32283125800091       -3.08856764546350       -2.57921562881217
C           -4.26627178825869       -5.76908102678184        0.65135877255394
C           -4.95615297392638       -6.96394897943869        0.56311039124451
C           -6.00580728932699       -7.09492199225679       -0.33069056897971
C           -6.36941996556692       -6.02300518865898       -1.12854449424513
C           -5.68132334778229       -4.82626403805008       -1.04166975655031
C            4.98149182725932       -4.28846459396107       -0.10034543503899
C            4.70499062442833       -5.50816537098134       -0.70914643419034
C            5.48654984044851       -6.61797437375691       -0.44569260541357
C            6.56097242601247       -6.52566907754313        0.42199956736095
C            6.85725487495057       -5.31112863327901        1.01812463197786
C            6.07651087969569       -4.20131275206744        0.75816844679647
C            1.92259367181944       -3.91057017224033        0.48919611867550
C            1.53572681181296       -3.72913123238211        1.81627216356598
C            0.74584887941577       -4.66906570878856        2.44872170152489
C            0.34388863398460       -5.80815177923867        1.77052827491463
C            0.71944103411338       -5.99256000784887        0.45169831068420
C            1.49648337091109       -5.04553295168185       -0.19100742030829
B            2.48976630977848        1.28901672667899       -0.49456370585225
B           -2.55043478995002        1.05117629496613        0.44927062721691
C            3.91501580615464        6.29599286207215        0.22560086823163
C            5.35672730373192        5.78556422252948        0.14560320572743
C            3.70450645287214        7.29588135575106       -0.92070407467863
C            3.73820480870450        7.00626745268601        1.57550306264835
H            0.07748252916268       -2.78611214563740       -0.34763304207708
H            4.29218063157251        3.59378446378145       -0.08633841685979
H            1.22775891767374        6.56606438942244        0.29609740356632
H           -1.68604020820866        6.45463211441410        0.41207885001147
H           -4.52496299876758        3.24099793664014        0.43190069226273
H           -5.06464098162834        7.66241362592552       -0.64685285424072
H           -3.31931307465201        7.44592117352208       -0.73521770582277
H           -4.38354290790916        6.35357254318806       -1.61726407306742
H           -6.49042300299173        6.14925440629503        0.60627650870875
H           -5.87288828914047        4.70647671749134        1.40187346705284
H           -5.93847541963636        4.79063166477512       -0.36599939849779
H           -4.19733712358295        6.12089468797810        2.67282800273267
H           -3.21193646001415        7.30965591647945        1.82437730586265
H           -4.95834661067667        7.52179083611395        1.91267301145668
H            6.79868180572414       -2.03031045574501       -1.08419455946002
H            8.18715255200151       -0.23714530205014       -1.92295492551538
H            8.45692868428205        2.06184812088859       -2.76541765886265
H            6.49378412367581        3.55038497447269       -2.91436755559957
H            4.30382397346792        2.79462036124098       -2.10308473889920
H           -6.41250240836813       -2.74602232567976        1.31666201569229
H           -4.25597340860030        2.23774498659279        2.37673078523752
H           -6.31839075085563        2.66285842157080        3.63462477429649
H           -8.10794262757487        0.96409486911805        3.70178244956067
H           -7.77584077285937       -1.20812304021205        2.59012112747984
H           -2.13975192002275       -5.73620974056399       -0.64526274994195
H           -0.94623643155856       -6.91031117118502       -2.43962654091605
H            0.04495002950035       -5.64372150099191       -4.31046599866205
H           -0.21799050412059       -3.18988567903264       -4.40031191813566
H           -1.45568946744386       -2.01849208489100       -2.64136104643901
H           -3.45805314550800       -5.65684684829425        1.36149293121408
H           -4.67647913802335       -7.79486975484785        1.19530895532447
H           -6.54291386673109       -8.02923891002476       -0.40074173541863
H           -7.19353246020817       -6.11984347602734       -1.82063400402165
H           -5.96318328873864       -3.98798851576260       -1.66299792236923
H            3.88698294054741       -5.58310135295468       -1.40767826413433
H            5.25762110237704       -7.55968280683519       -0.92347662774845
H            7.16778811108073       -7.39469862686416        0.62952574084821
H            7.69854021921765       -5.23076103801591        1.69153847477792
H            6.29973858795891       -3.25739411022902        1.23453523217901
H            1.86263917894572       -2.84602010698125        2.34691055463106
H            0.45110470121744       -4.51806061236390        3.47670980070966
H           -0.26109558771983       -6.55040061009987        2.27021374115296
H            0.40711285626577       -6.87778901399560       -0.08096993525931
H            1.74739411612367       -5.17193996489764       -1.23329114683326
H            6.04175569672713        6.62730824883273        0.23108294826831
H            5.57468474088430        5.09314543004234        0.95539079989107
H            5.54851848118952        5.29202291460473       -0.80416114962658
H            4.42872251215106        8.10510297849512       -0.85043817568252
H            2.70857771433365        7.72961614199146       -0.89509911261484
H            3.83416478528233        6.79899651873940       -1.88013403490716
H            3.85249881170441        6.29476775168310        2.39081823086728
H            4.48768540165475        7.78658302116387        1.69081636378314
H            2.75663013661389        7.46454401887464        1.65953865130122
