132
energy: -196.936155971060 gnorm: 0.002294363676 xtb: 6.7.1 (edcfbbe)
C           -1.25197851551398        0.31672142891578        0.12840984260852
C           -1.18114923185954       -1.07835923251899       -0.07682918078040
C            0.04382188193614       -1.72606180974158       -0.20279359153104
C            1.23031979779564       -0.99910372919340       -0.22997479662007
C            1.22066614659143        0.41436138470140       -0.22648399755682
C           -0.03466714356079        1.00916966207828       -0.00307528892974
N           -0.07534860907147        2.36189773519699        0.10129551698896
N           -2.38502364285804       -1.75781716854555       -0.09587920707648
N            2.47064676080317       -1.60606022565805       -0.28584329110424
C            1.00637423623177        3.19476856523802        0.03255531147605
C            0.58202845451324        4.52991170242070        0.19959338602023
C           -0.86216772417150        4.47557928950586        0.33960788577826
C           -1.20460239865448        3.10759047774622        0.29696099527868
C            2.32061801885752        2.78861442415225       -0.17809169863376
C            3.25530178109533        3.83210408622013       -0.08534843562835
C            2.89586373782926        5.16390087766822        0.09439281977381
C            1.54509659531862        5.51788846160277        0.21156889721904
C           -1.88247154731060        5.39359565008015        0.48273532351326
C           -3.20866704655542        4.94546644735230        0.54909153238871
C           -3.48609308686839        3.58256563256724        0.52753579502530
C           -2.48961789334069        2.59648183378510        0.45299841654840
C           -4.31264332003591        5.98952032447880        0.66823548224875
C           -4.25185583744638        6.92943667777219       -0.54427812428856
C           -5.71491494743098        5.37600712772278        0.72020651018651
C           -4.09996386408763        6.79133855777660        1.96077702422594
C            2.82761632584673       -2.93690921485127       -0.06700896896595
C            4.15530255061286       -3.11236653880487       -0.35406108874343
C            4.66802656260601       -1.83574935144797       -0.77720546639696
C            3.58611085356927       -0.91756847509067       -0.69560798522099
C           -3.50092152457703       -1.22645772589079        0.50329011347114
C           -4.49780892497891       -2.23908023623670        0.56281961768569
C           -3.94138796216499       -3.39516292477420       -0.08160428824902
C           -2.67323182166423       -3.06751304111955       -0.48499707216196
C            5.89804846010443       -1.39750402323626       -1.19817657203962
C            6.03332968441414       -0.05886634968523       -1.61696370821686
C            4.93041306291223        0.84538116323270       -1.53853276981307
C            3.69043568845438        0.44144255582271       -0.95782401700085
C            7.25835432564725        0.40085157201097       -2.14924609666955
C            7.38545884455630        1.66730402444768       -2.64361568036393
C            6.27580472742807        2.52497805651762       -2.65422760232181
C            5.08431271334365        2.12157132974256       -2.11700531200032
C           -3.67558775460766        0.07394481634369        0.95465229707850
C           -4.88571804057730        0.30074528297100        1.67678279378403
C           -5.90614763895192       -0.69821254964728        1.73320731710260
C           -5.71121657007400       -1.96223193070802        1.14235664566211
C           -5.08626071303807        1.48754701782973        2.41060149859496
C           -6.25213576193459        1.72450343018655        3.08494981400874
C           -7.28779665538051        0.77891577912258        3.06506775595987
C           -7.10889250713499       -0.40868794941825        2.41565128559035
C           -4.66725168765533       -4.65522850214649       -0.29074920276427
C           -1.82761640548871       -3.83165699611226       -1.39705717568510
C           -1.66843298677850       -5.20806876450199       -1.26083252393891
C           -0.92367890669908       -5.91999552865678       -2.18321297147441
C           -0.31963982296522       -5.27207655491909       -3.24675710035026
C           -0.48033786265123       -3.90381611588160       -3.39661189699064
C           -1.23560265460356       -3.19012029027317       -2.48821270763419
C           -4.49805907218577       -5.71841796710703        0.59083864100172
C           -5.19694594894627       -6.89714065968817        0.40637217630246
C           -6.07922124398083       -7.02386016174225       -0.65489195288280
C           -6.26276489552377       -5.96497528255420       -1.52798006172681
C           -5.56319200982297       -4.78538519637283       -1.34647298077605
C            4.98931758665690       -4.30143195226863       -0.17345874432870
C            4.74774908139202       -5.49159062328473       -0.85130388444155
C            5.56945232260367       -6.58750955652791       -0.66044082192273
C            6.64926427770576       -6.50863094261356        0.20197534543982
C            6.90969946372197       -5.32200460724234        0.86742661987884
C            6.08899401094548       -4.22636865378981        0.67944259906491
C            1.93878461194966       -3.87675174623937        0.62349148981532
C            1.49277423630358       -3.54468145435727        1.90376453982882
C            0.68611671897271       -4.41339536627023        2.61111597909681
C            0.32217433812088       -5.63074123090977        2.05696193094154
C            0.76220818592563       -5.96775145693750        0.78953270974997
C            1.56067179719953       -5.09532385363429        0.07172519045366
B            2.47896037340225        1.26999001761897       -0.47667555110124
B           -2.55030396647369        1.04488332930213        0.52936024627740
C            3.93499620667717        6.27751550702211        0.14761466502105
C            5.37176720509166        5.76411854907198        0.01533657961517
C            3.67460619045317        7.25344770100292       -1.00928344030804
C            3.81736524629704        7.01586553666830        1.48853387512844
H            0.07103651698435       -2.79843761251194       -0.27813001273044
H            4.29794217802473        3.57015631040259       -0.14206784678623
H            1.25264793814593        6.55008756262846        0.32978234469044
H           -1.65311712623632        6.44738075097870        0.52532069070380
H           -4.51008477107134        3.25070940092754        0.55384283299257
H           -5.04517911783471        7.67188221105539       -0.48397617094400
H           -3.30137292608548        7.45309183384059       -0.59656115876742
H           -4.37919585570276        6.36259940960006       -1.46448101545967
H           -6.45238945088564        6.17139205817676        0.81075300442159
H           -5.82627066382228        4.71642190974305        1.57750887285910
H           -5.93371430428027        4.81807906121334       -0.18733444268949
H           -4.13638384067779        6.12837135276895        2.82299969077831
H           -3.13887687568704        7.29801860011965        1.96274362136555
H           -4.87980616590961        7.54229986913258        2.06957104907969
H            6.74662041352584       -2.06475091232138       -1.24285799001203
H            8.09343788794570       -0.28528175954024       -2.17731646266917
H            8.32632144012100        2.00468789609820       -3.05349110280253
H            6.36694739755649        3.50407676395101       -3.10289105851306
H            4.22069728835899        2.76529151822375       -2.16727296976157
H           -6.49889008043195       -2.70141383712325        1.17414012399714
H           -4.27619760650045        2.19686261148097        2.46346733104061
H           -6.37866074845320        2.63798332409635        3.64865632035573
H           -8.21052038636315        0.98561195205783        3.58707624595230
H           -7.88301771476307       -1.16327206887252        2.42934253783567
H           -2.12305058089727       -5.71750600374598       -0.42631011082907
H           -0.81004651367373       -6.98883923970720       -2.06811766968425
H            0.27060355546249       -5.82974683203866       -3.95990175210881
H           -0.02207076050185       -3.39232655171732       -4.23072939331847
H           -1.37692939532613       -2.12705310994864       -2.62391099852431
H           -3.81742644986112       -5.61228433940658        1.42445292794648
H           -5.05478813031672       -7.71954899305363        1.09254010622053
H           -6.62449779570898       -7.94507411103835       -0.79933487615599
H           -6.95606268946602       -6.05785626405359       -2.35174588977588
H           -5.70501440376640       -3.95737742262937       -2.02603977061867
H            3.92862210610728       -5.55055355018331       -1.55154883173008
H            5.36983371872295       -7.50651264991661       -1.19284035608331
H            7.28992195087532       -7.36559924280986        0.34971481048155
H            7.75600122517728       -5.25126711575559        1.53559532978664
H            6.28789671725678       -3.30255080391672        1.20399624122201
H            1.78374834720939       -2.59805434233809        2.33708484537663
H            0.34427174477941       -4.14390816090372        3.60004210432652
H           -0.30368718455134       -6.31298260072585        2.61338195954384
H            0.47969917784951       -6.91414054073058        0.35288550163149
H            1.86367781436889       -5.34741872575866       -0.93239256993205
H            6.05962117482624        6.60664059969322        0.05355312526015
H            5.62468744309754        5.08796065960319        0.82867245023320
H            5.52191161241460        5.25105447373421       -0.93145975911144
H            4.40913833044370        8.05641442301069       -0.99614752410112
H            2.68553862450243        7.69803023914475       -0.94176590463440
H            3.74921390074858        6.73317180890108       -1.96232444781912
H            3.98434237547343        6.32506951223012        2.31271107642356
H            4.56047909020222        7.80868470455947        1.54695833937881
H            2.83495665235756        7.46273589804315        1.61363539186604
