132
energy: -196.935940019015 gnorm: 0.001520070806 xtb: 6.7.1 (edcfbbe)
C           -1.23513589911040        0.31684014285432        0.13889890361582
C           -1.16191213209149       -1.07591902646090       -0.07751063191047
C            0.06294427459621       -1.72063021623740       -0.20899253827708
C            1.24741989545366       -0.99149149503221       -0.22800398006168
C            1.23703701804988        0.42176716209536       -0.22072659518431
C           -0.01964016697372        1.01276955292156        0.00612438622378
N           -0.06417178084539        2.36489293251856        0.11210578681490
N           -2.36195581784582       -1.76015674661422       -0.10007674064162
N            2.48601469521195       -1.59919708780536       -0.27995811562057
C            1.01405571124649        3.20135948392590        0.03415954817778
C            0.58419398816503        4.53575942447677        0.19686405218815
C           -0.86016513132163        4.47598054536282        0.34303491513594
C           -1.19609718815166        3.10602561018431        0.30950114199231
C            2.32939268874470        2.79828599354143       -0.17973335835441
C            3.25967030795978        3.84639769054405       -0.09278600682244
C            2.89586960717234        5.17758031603849        0.08325024926692
C            1.54392616371242        5.52745184673441        0.20165810463262
C           -1.88642669402460        5.38922261056477        0.47994769897987
C           -3.21018320504678        4.93379828662628        0.54963473283578
C           -3.47933057428299        3.56915842152263        0.54396256046891
C           -2.47791421673127        2.58852139195466        0.47324820684009
C           -4.32393229051480        5.96917838718457        0.65450103735154
C           -4.25618186253828        6.91117242866622       -0.55594717297647
C           -5.72178495574105        5.34359895808207        0.68508144833968
C           -4.13520860676921        6.77071226652131        1.95070690902503
C            2.83607074521513       -2.93082739019947       -0.06013979155189
C            4.16419153166503       -3.11133103329843       -0.34238061285713
C            4.68221007282430       -1.83633704704312       -0.76621433317455
C            3.60389267352611       -0.91316929620583       -0.68616536833371
C           -3.47628502333295       -1.23962489604880        0.51040311541979
C           -4.46301743873529       -2.26110991969222        0.57315985082087
C           -3.90173164302004       -3.41143051040472       -0.07778055486503
C           -2.64124199529404       -3.07047556340853       -0.49488057726352
C            5.91218496824014       -1.40237179401325       -1.19126444673754
C            6.05128623770281       -0.06326045487297       -1.60726599046265
C            4.95228351358512        0.84606997784660       -1.52677164283551
C            3.70940607127699        0.44626895265787       -0.94821460797943
C            7.27925877189434        0.39190467904621       -2.13667254568513
C            7.41528445838506        1.66067630830963       -2.62241126372413
C            6.31012683010207        2.52395337373814       -2.63118254252816
C            5.11457943489973        2.12326660540401       -2.10094063865405
C           -3.65666112919319        0.05776256292900        0.96866152642944
C           -4.86867841003476        0.27338141423432        1.69161365408716
C           -5.88140465943736       -0.73388351139682        1.74679578837970
C           -5.67636443198889       -1.99673365285945        1.15785326402117
C           -5.08165950679625        1.45861373962178        2.42477435394433
C           -6.25287071522022        1.68742378830569        3.09269657151036
C           -7.28137119046586        0.73392535973880        3.06934132490344
C           -7.08920104725415       -0.45371719787892        2.42420225142034
C           -4.63498086768839       -4.66860052574562       -0.27172761714624
C           -1.80946378639823       -3.81097171927927       -1.43811888678392
C           -1.65932512513199       -5.19254647958714       -1.34838451607915
C           -0.93871626724686       -5.88260645609223       -2.30652330006844
C           -0.35117607105734       -5.20825442494739       -3.36276263997952
C           -0.50095740043928       -3.83392578888479       -3.46537685232227
C           -1.22961243459527       -3.14140355592711       -2.51926229802218
C           -4.41312776239917       -5.75408133991993        0.56941040322059
C           -5.14065756923877       -6.91975770072082        0.41276182299983
C           -6.10259694870711       -7.01134872781623       -0.57959631440207
C           -6.33511248557496       -5.93161485673985       -1.41408741069172
C           -5.60820200106591       -4.76487117268880       -1.25968030647597
C            4.98724540414960       -4.30525452920154       -0.14895248004025
C            4.71049907524080       -5.51268062289410       -0.78126256661856
C            5.51620853607856       -6.61672292714230       -0.57065311134799
C            6.61519339194012       -6.52960988830445        0.26618536081915
C            6.91009465811028       -5.32685490732170        0.88668017582816
C            6.10517133779270       -4.22308746175584        0.67948206219078
C            1.93347488836833       -3.86627468373064        0.62036602465365
C            1.50432010450656       -3.55132801743073        1.91045980725223
C            0.67398507284640       -4.41135532447273        2.60152671254808
C            0.27114658425497       -5.60395067034892        2.02172523243284
C            0.69533892706502       -5.92476648958024        0.74432305675526
C            1.51476412501850       -5.05922981017691        0.04215841409200
B            2.49525814882643        1.27786333321623       -0.47203163615898
B           -2.53510653683399        1.03674435563157        0.54777184724212
C            3.93320097136573        6.29331790637192        0.13735140118343
C            5.37073918561569        5.78291459053874        0.00038995925346
C            3.67066973205610        7.27539302850750       -1.01377836522535
C            3.81646586077161        7.02475255250329        1.48228853555308
H            0.09011814328771       -2.79192432148611       -0.29441878875847
H            4.30331258575378        3.58882533095989       -0.14946040439444
H            1.24881879514465        6.55935170005548        0.31614279330759
H           -1.66431395383560        6.44489564540146        0.51469733585139
H           -4.50089703190954        3.23117625545500        0.57837592794840
H           -5.05775878464699        7.64533904235946       -0.50509609948362
H           -3.31087395224398        7.44510229391871       -0.59531994128988
H           -4.36578543551423        6.34423728533389       -1.47829180555916
H           -6.46841475526603        6.13349258117107        0.74388118520258
H           -5.84780925749871        4.69839692415086        1.55135612128666
H           -5.91419508033443        4.76772006399208       -0.21731664448572
H           -4.15720332228942        6.10374143879239        2.81026720042218
H           -3.18678704100605        7.30099146531782        1.95633413078615
H           -4.93396989125696        7.50138211655189        2.06031598390483
H            6.75823985888751       -2.07249071363365       -1.24165026447514
H            8.10989482931329       -0.29939900822240       -2.16797142070239
H            8.35933129248772        1.99542084115386       -3.02701684145360
H            6.40815298401049        3.50527924078271       -3.07345581348509
H            4.25396572365819        2.77058867622529       -2.15313964599368
H           -6.45653182415860       -2.74362222292198        1.19254056056708
H           -4.27708183773940        2.17393982158818        2.48102238998881
H           -6.38966848159148        2.60088206951232        3.65401699281011
H           -8.20900267259842        0.93456160110371        3.58503500956462
H           -7.85671124057019       -1.21520818745861        2.43562320307657
H           -2.10467386625747       -5.72425498771768       -0.52327836122799
H           -0.83618363345792       -6.95493637789356       -2.22792155003696
H            0.21381719864365       -5.74928084074769       -4.10777919589590
H           -0.05421608052166       -3.30066804773652       -4.29204134895106
H           -1.35931127933647       -2.07340802585606       -2.61905866427752
H           -3.67453341452420       -5.67375970527884        1.35631922982881
H           -4.96142178844274       -7.75801972198941        1.07066451227734
H           -6.67321302971176       -7.92080399413610       -0.69845425397718
H           -7.08827212758211       -5.99771120208949       -2.18635966887490
H           -5.78837393075439       -3.91957418420268       -1.90810959070737
H            3.87518398196616       -5.58067022051577       -1.46053165021837
H            5.28805166218883       -7.54901865607366       -1.06704641389207
H            7.24323857392754       -7.39305075365312        0.42963953613591
H            7.77035975121986       -5.25022314823949        1.53603934745798
H            6.32964624570187       -3.28744573730354        1.17150278080419
H            1.82500836683529       -2.62450034369981        2.36459890349013
H            0.34350416407560       -4.15410757202440        3.59759215755217
H           -0.37378262233240       -6.27887598224804        2.56510322987976
H            0.38275089485702       -6.85150609435317        0.28694713637636
H            1.79949123132505       -5.29375035877629       -0.97179153923521
H            6.05680319414429        6.62682790457264        0.03627475598498
H            5.62793195703291        5.10756971238884        0.81292820556631
H            5.51918401330494        5.27026598943054       -0.94683476143069
H            4.40974805381289        8.07432949499306       -1.00104910884367
H            2.68446684852434        7.72536175850937       -0.93835838255784
H            3.73710543644040        6.75932126823498       -1.96987663192610
H            3.97449273939005        6.32766344168831        2.30292587375252
H            4.56582827784397        7.81110730027899        1.54844157856355
H            2.83712683712760        7.47879808355609        1.60589886816935
