132
energy: -196.935416114311 gnorm: 0.001292908192 xtb: 6.7.1 (edcfbbe)
C           -1.25379516910253        0.32963386312064        0.03331954400222
C           -1.17847322588504       -1.06594141525089       -0.15933849129503
C            0.04785322591533       -1.71158011380972       -0.28303013914299
C            1.23433438416366       -0.98358638648625       -0.30149239937062
C            1.22289245930658        0.43082512095403       -0.29331867982681
C           -0.03737069633006        1.02455756533138       -0.09264834685207
N           -0.08526542412151        2.37774722864945        0.00572450879166
N           -2.37991947764692       -1.75083032272707       -0.15483612663991
N            2.47519580952412       -1.59215233940300       -0.33523825570827
C            0.99508581544440        3.21401731492894       -0.03450320993043
C            0.56284459832013        4.54748972142899        0.12665133422674
C           -0.88453039782322        4.48892369371665        0.23173729047959
C           -1.22018109135573        3.11944339962342        0.18365468338013
C            2.31601262747559        2.80962801724301       -0.20231226435889
C            3.24532455092864        3.85323514775186       -0.06380695052285
C            2.87843152380440        5.18278412610032        0.11759984687011
C            1.52391616540280        5.53609731567800        0.18226255470843
C           -1.91169799644721        5.40231662576861        0.35581791889191
C           -3.23698378996545        4.94830796474200        0.40180750750990
C           -3.50697315353558        3.58388907651376        0.38904842709283
C           -2.50414703601816        2.60373442787303        0.33188785079544
C           -4.34911867122388        5.98625217283736        0.49250054456210
C           -4.26804895533851        6.92063050536278       -0.72314518968134
C           -5.74849113464770        5.36414856457443        0.51613560027616
C           -4.16948591582023        6.79558674667123        1.78508564902742
C            2.82646928014594       -2.92447683309827       -0.12428514681879
C            4.17070256132704       -3.09031826926736       -0.32979604881982
C            4.70057526704626       -1.80624861763040       -0.70643887739437
C            3.60982773213221       -0.89460923740042       -0.67710578472084
C           -3.47830499676989       -1.22628219070122        0.48108749581799
C           -4.44849783666480       -2.25725028304672        0.61045950263382
C           -3.89909250538935       -3.41836342802182       -0.03247741596428
C           -2.66070738157759       -3.07229449610570       -0.51275409964757
C            5.95069852113624       -1.35814243088920       -1.05133098468668
C            6.10397839580482       -0.01492109412349       -1.44755175335060
C            4.99180374287117        0.88105220146778       -1.43079696372289
C            3.72249825648545        0.46685660335358       -0.92390640100393
C            7.35810819614292        0.45801640107373       -1.89456412780858
C            7.50724870239883        1.72933862384316       -2.36950511303267
C            6.39230343549741        2.57644471590810       -2.45101555994913
C            5.17137718675188        2.16015003955456       -1.99545326400429
C           -3.65864733188837        0.08151653476733        0.90795394578038
C           -4.84399791941002        0.30523000101922        1.67130092862774
C           -5.83506879572567       -0.71618475887897        1.80597950704067
C           -5.63749150318033       -1.99250798342423        1.24366094504123
C           -5.04588845812866        1.51235459183846        2.37095694007046
C           -6.18485541515469        1.74042794807926        3.09293970531062
C           -7.19201774548149        0.76627933124243        3.15752053412112
C           -7.01138171330099       -0.43637850618384        2.53746891126555
C           -4.60883378141915       -4.69803230848954       -0.13874361308883
C           -1.87301842648181       -3.79124459298950       -1.50802687361660
C           -1.73756774291890       -5.17704024676934       -1.48382125328163
C           -1.06858848388913       -5.83343326945006       -2.50050667090994
C           -0.51358192888784       -5.12239787308767       -3.55006848800828
C           -0.64953854122146       -3.74412504553613       -3.58874004642274
C           -1.33018870935931       -3.08493077764652       -2.58569363660771
C           -4.24079205614887       -5.77198187574580        0.66744323130216
C           -4.92566337636887       -6.97060592005837        0.59183096216628
C           -5.99051773976586       -7.10773345220634       -0.28308154787440
C           -6.37467255804885       -6.03776690302300       -1.07390139323269
C           -5.69161082480928       -4.83730397704981       -0.99974326611396
C            4.98218868171837       -4.28365920686116       -0.09136634311057
C            4.71057613713507       -5.50605294764008       -0.69704899644942
C            5.49292220913617       -6.61365286116070       -0.42650675704266
C            6.56378294863602       -6.51682324550960        0.44508852016320
C            6.85542313020383       -5.29967993647708        1.03818363244359
C            6.07362514696927       -4.19219589983151        0.77144597736881
C            1.91908418374747       -3.91788259377451        0.46564029947371
C            1.52694381126498       -3.75798576210989        1.79389979568387
C            0.73905388246167       -4.71110040491027        2.40920468416881
C            0.34544215247566       -5.84204171882186        1.71265375801156
C            0.72588364762385       -6.00491212441599        0.39228442506298
C            1.50009002800628       -5.04422926458212       -0.23346085343950
B            2.48700231197048        1.29101359801356       -0.49896265965288
B           -2.55453863776778        1.05435105532728        0.43273398606984
C            3.91438369709975        6.29390586543103        0.24210399308076
C            5.35573542996872        5.78041544286261        0.17499406548709
C            3.71525921367534        7.29396055458515       -0.90611405994217
C            3.72797039340228        7.00529140468262        1.59011340796773
H            0.07440025649867       -2.78436653827348       -0.35499591063334
H            4.28967649704797        3.59309685240565       -0.08114819601601
H            1.22664456672044        6.56694674240951        0.29947292779973
H           -1.68824219523520        6.45729260683995        0.40077272318991
H           -4.52891898823051        3.24508941392517        0.40934757832776
H           -5.06403935129261        7.66139878543485       -0.68105232203162
H           -3.31796648569167        7.44639791922640       -0.76036457610602
H           -4.37693916370949        6.34922052444763       -1.64283433907858
H           -6.49297679276050        6.15542406797272        0.58002119070824
H           -5.87728827141681        4.71275207659207        1.37727453186806
H           -5.94084493984641        4.79580858079567       -0.39076417319555
H           -4.20885628559277        6.13527790150803        2.64920259060780
H           -3.21667986502671        7.31751050251510        1.79953343293723
H           -4.96281328575720        7.53448742571994        1.87888758914813
H            6.80383264055725       -2.02110542325823       -1.05559917100824
H            8.19887755130007       -0.22159542657795       -1.87159444230245
H            8.47095626661274        2.07836100078472       -2.71118390095617
H            6.50375125351662        3.55810397444948       -2.88933154808362
H            4.30696952697255        2.79594285031907       -2.10185180052986
H           -6.40373273256546       -2.74879034025214        1.33654800014232
H           -4.25747405639573        2.24758759373395        2.35795117682547
H           -6.31105098321806        2.66992975477030        3.62973992577551
H           -8.09346194824896        0.96467841866164        3.71895698084418
H           -7.76234924396075       -1.21063525908854        2.61253951681432
H           -2.15694481584695       -5.74013759383267       -0.66651748994136
H           -0.97976818391755       -6.90974496334892       -2.47286408565088
H            0.01430220111661       -5.63776864427358       -4.33879141594202
H           -0.23224881779308       -3.18128973868601       -4.41102005776793
H           -1.45670106574745       -2.01377173590277       -2.64159820437757
H           -3.42090592479926       -5.65525871969393        1.36354480077276
H           -4.62993699948021       -7.79971471067209        1.21910035913672
H           -6.52325443279695       -8.04513451657093       -0.34386582368153
H           -7.21088065845450       -6.13915133733905       -1.75079148700113
H           -5.98942281447015       -4.00084139656554       -1.61603496179694
H            3.89561124632799       -5.58576485924752       -1.39848457985446
H            5.26721504907403       -7.55729723996028       -0.90203836246563
H            7.17116889644911       -7.38413868401113        0.65804172834818
H            7.69388386634748       -5.21521814582454        1.71466873064517
H            6.29337580587632       -3.24667813448669        1.24623763641499
H            1.84824412279298       -2.88141610555278        2.33896320841098
H            0.44019737715130       -4.57728718982166        3.43841711013104
H           -0.25671593816253       -6.59528526885257        2.19936802183628
H            0.42023797794631       -6.88381776060984       -0.15460963023583
H            1.75485450401561       -5.15270866884472       -1.27694877380183
H            6.04181839782061        6.61980129251066        0.27353078180433
H            5.56278816609793        5.08240994177376        0.98280715731777
H            5.55707260421279        5.29236973137939       -0.77560937225850
H            4.44562474514781        8.09758184609335       -0.83470224774012
H            2.72263984311366        7.73541264740212       -0.88344037305602
H            3.84371269451514        6.79504844261061       -1.86460093779331
H            3.83688004044178        6.29472474244918        2.40693447281437
H            4.47654218581764        7.78584265948620        1.70961529385888
H            2.74593305845098        7.46374750796722        1.66711635456577
