132
energy: -196.941059495594 gnorm: 0.003815520426 xtb: 6.7.1 (edcfbbe)
C           -1.25820942505186        0.35119379548864        0.17388506630456
C           -1.19116553858104       -1.04621565926441       -0.02181023861832
C            0.03367911769198       -1.69277741458788       -0.15080596396441
C            1.22085022399624       -0.96622426271580       -0.17474837612870
C            1.21540745923455        0.44595654168883       -0.16921099357849
C           -0.04011855396270        1.04276581831588        0.04714694870651
N           -0.07689744382160        2.39628839353035        0.14583669943417
N           -2.39695737230584       -1.72535255850164       -0.03614105049043
N            2.45898477025709       -1.57666277860854       -0.24189020966716
C            1.00738543292345        3.22590606346301        0.08379658215393
C            0.58521043024683        4.56374232981401        0.23824970452207
C           -0.86229035100718        4.51455779337352        0.35489966078584
C           -1.20622745471464        3.14668744971635        0.32067024999530
C            2.32245307095955        2.81506139934061       -0.11390965773769
C            3.26130206681408        3.85285389657258       -0.00597714560428
C            2.90578515948448        5.18545476472161        0.17583022709994
C            1.55440081282594        5.54616283721411        0.26711430080183
C           -1.88681865317832        5.43351220198725        0.46566048960788
C           -3.21399886938893        4.98487360993335        0.51340997191125
C           -3.49083438625683        3.62186207973148        0.50950560889593
C           -2.49283510005931        2.63666054686043        0.46338519608173
C           -4.32433489709548        6.02583553582252        0.59532471482244
C           -4.24180334819007        6.95273000142657       -0.62558372061001
C           -5.72496123454173        5.40636690685023        0.62176489771780
C           -4.14406973213383        6.84082855737695        1.88414753928767
C            2.81585742197822       -2.91344011948167       -0.05565904675694
C            4.11378671088580       -3.10011906675676       -0.45048899193752
C            4.61819453078741       -1.82764933842099       -0.88034134121266
C            3.55797830081824       -0.89547609060916       -0.70656467761145
C           -3.52222178895077       -1.17999544840324        0.53717528535669
C           -4.53235085890849       -2.18105434690770        0.58271139239164
C           -3.97456984725082       -3.34768968964075       -0.04892359197227
C           -2.68957358930403       -3.03135218238352       -0.41729865554410
C            5.83573328405641       -1.39658270251637       -1.34402035763735
C            5.97620007573377       -0.04602953870025       -1.71804694144039
C            4.89031102811972        0.87040881614269       -1.56640130951498
C            3.66873759894224        0.46717224201100       -0.94651951758954
C            7.19085227231187        0.41535144634669       -2.27281130201331
C            7.32331388840366        1.69849692831568       -2.71971213166416
C            6.22650404592305        2.57098594968470       -2.66218683748142
C            5.04598383462049        2.16465680106351       -2.10344524267786
C           -3.69342799868679        0.12703995544253        0.96963650942083
C           -4.91561712108073        0.37736199197210        1.66256037889552
C           -5.95612470331089       -0.60032939643771        1.68533687813268
C           -5.76398798370535       -1.86912621691003        1.10348568483662
C           -5.11250782856235        1.56684496609416        2.39279227716627
C           -6.29413115553628        1.82643709546589        3.03067111851278
C           -7.35033058930664        0.90495717336363        2.97079335092092
C           -7.17632580480144       -0.28485444840130        2.32415291998090
C           -4.68395876828798       -4.59968385476609       -0.28554274210598
C           -1.78783976369923       -3.87240344922338       -1.20113596813567
C           -1.56829619537807       -5.20061769741561       -0.84549531089841
C           -0.77144644641188       -6.00919497246233       -1.63333875961343
C           -0.17635722196894       -5.50336315813604       -2.77665007329649
C           -0.39021108190739       -4.18308676725347       -3.13828955006333
C           -1.19672749846820       -3.37350152941832       -2.36265080548663
C           -5.44544633605912       -5.17213906476618        0.73037745689437
C           -6.12793446890147       -6.35548897795224        0.51843695886053
C           -6.06284812591367       -6.98549712011344       -0.71209976540772
C           -5.31515307004631       -6.41970762469232       -1.73180018617050
C           -4.63577422464589       -5.23544067081253       -1.52608105047664
C            4.91043914257177       -4.33285343905496       -0.38787309413329
C            4.95610045036405       -5.20046280270106       -1.47476107179812
C            5.72023906707671       -6.35135834389611       -1.41766268061779
C            6.45690331280508       -6.63987689616995       -0.27994917875710
C            6.42503051634708       -5.77459016347639        0.80100414039270
C            5.65488753925112       -4.62705232133278        0.74904724023044
C            1.99992947028820       -3.89608037527824        0.65083319687210
C            1.34099588651430       -3.54642325631704        1.83179791017520
C            0.62920929288607       -4.49197281263310        2.54128396287240
C            0.57920118224808       -5.80471795449570        2.09893349347738
C            1.24916171571064       -6.16401450158743        0.94245296248386
C            1.95036346753488       -5.21831953809632        0.21772847692506
B            2.47549404762640        1.29814682302702       -0.42198136421190
B           -2.55725265466224        1.08704475825591        0.55379391781554
C            3.95191701547341        6.29058653903273        0.26314290898902
C            5.38777673724207        5.76641576722720        0.16371365416091
C            3.73069714814250        7.27983388432635       -0.89059700221688
C            3.80677313129628        7.01805658428819        1.60738139391917
H            0.06747419864139       -2.76460352778142       -0.22743683585993
H            4.30301787977374        3.58447526457875       -0.05022218168919
H            1.26648895315867        6.58029680583919        0.38026559674520
H           -1.66040880688366        6.48846054698823        0.49633467535310
H           -4.51426924156203        3.28824939751619        0.52668542074681
H           -5.03776052051106        7.69379493999072       -0.58848905062611
H           -3.29174448633764        7.47821455942115       -0.66586270149447
H           -4.35079303407827        6.37560570274286       -1.54168408150135
H           -6.46815984352074        6.19936288954839        0.67961867958335
H           -5.85566851540615        4.76088488154245        1.48703232337169
H           -5.91785349563686        4.83195116172744       -0.28135333627116
H           -4.20033550608564        6.18571922041319        2.75130603247246
H           -3.18354721006739        7.34833084970281        1.90391697351411
H           -4.92717658659091        7.59159251814176        1.96721757562682
H            6.66792378770555       -2.07786733675448       -1.44681533682162
H            8.01279470023078       -0.28250995141690       -2.35257470857771
H            8.25682727707972        2.03948711620788       -3.14298425241061
H            6.31981387909290        3.56563847007062       -3.07486889424990
H            4.19294717057630        2.82403090471363       -2.10019934017417
H           -6.57567923591091       -2.58191539148100        1.09590825227602
H           -4.28924832277404        2.25873506288462        2.47312086560411
H           -6.41887638614875        2.73936641649948        3.59562231937495
H           -8.28595546465851        1.13251991660670        3.46065881528631
H           -7.96806171178640       -1.02119902921075        2.30840331045001
H           -2.02193799739745       -5.59238478204714        0.05240556340343
H           -0.61425115190032       -7.04003620017204       -1.35470403057658
H            0.44956922936121       -6.13513304376835       -3.38936633352994
H            0.06608515233563       -3.78411854075300       -4.03247809957916
H           -1.37638138260975       -2.34798039039806       -2.65295481805697
H           -5.47622782425692       -4.69420625078500        1.69967755356624
H           -6.70899356070834       -6.79071352322429        1.31975039870094
H           -6.59243888325977       -7.91243962492027       -0.87539460386689
H           -5.26604026568055       -6.90511975634417       -2.69660798724049
H           -4.06505295186765       -4.79205064865747       -2.32873623521284
H            4.38730744385710       -4.96625859136488       -2.36496672778191
H            5.74306405269590       -7.02563197839578       -2.26256415589846
H            7.05682681943929       -7.53696744593871       -0.23759748932673
H            7.00324479596244       -5.99444579394922        1.68750615333580
H            5.62455614418272       -3.94980484018458        1.59115280615142
H            1.39579069959649       -2.52836968774037        2.19075343661998
H            0.11805070714637       -4.20687409428199        3.44926683679589
H            0.02462651240068       -6.54423929178131        2.65751691794420
H            1.22782351761376       -7.18819872070629        0.60053968963194
H            2.45601404224312       -5.50041165510498       -0.69224298237261
H            6.08095357245334        6.60416673443267        0.21661173978192
H            5.61700173944512        5.08958825050525        0.98377443600646
H            5.55663919590601        5.25117376715126       -0.77892933106779
H            4.46450475480189        8.08198790439136       -0.84260844857023
H            2.73988789726007        7.72405816646022       -0.85152386915824
H            3.83793148382783        6.77064687532023       -1.84638754782042
H            3.95013486669766        6.31942409729968        2.42936680702690
H            4.55316202305584        7.80568246565252        1.69026087381817
H            2.82440671479287        7.47001551679743        1.71311390299033
