132
energy: -196.934661420423 gnorm: 0.002204451815 xtb: 6.7.1 (edcfbbe)
C           -1.24968520770030        0.33062284365850       -0.00861451975282
C           -1.17386441498943       -1.06291449862537       -0.21411338575211
C            0.05344071574075       -1.70524547491828       -0.34629110149779
C            1.24260189505786       -0.98034979931758       -0.33389599249442
C            1.23132075533653        0.43422588799582       -0.29741335136591
C           -0.03199729201875        1.02684301453658       -0.11160308432603
N           -0.08141540910078        2.37926450669294        0.00268443680681
N           -2.37463159195811       -1.75189697234029       -0.20304929252705
N            2.48460240214973       -1.58949206809442       -0.35063441368022
C            0.99785136414241        3.21702636300343       -0.01018373754888
C            0.56103393238876        4.55009491736906        0.14292502230462
C           -0.88873299153450        4.49004206327083        0.21034273711237
C           -1.22057617811960        3.11978315479230        0.15628274415682
C            2.32230150600071        2.81399401914626       -0.14833464682726
C            3.24786117841252        3.85627269364161        0.02023111379226
C            2.87623832755976        5.18513462441624        0.19700999409381
C            1.52044617272231        5.53861272653907        0.22496254839543
C           -1.92127322849349        5.40158170162440        0.29907077211993
C           -3.24638306050788        4.94441106364695        0.31151843147056
C           -3.51271136598101        3.57926136416849        0.30839705403020
C           -2.50599249144586        2.60214831827745        0.27996643655706
C           -4.36364358147128        5.98026266166235        0.34154167233064
C           -4.25247900547250        6.86797742702451       -0.90664852149545
C           -5.76087652198612        5.35326329774278        0.35231606731499
C           -4.22147570848987        6.83895743286122        1.60634156112263
C            2.83554599227307       -2.92482562237764       -0.14918842247972
C            4.19017967330980       -3.07711241380661       -0.28472798922854
C            4.72707958577315       -1.78445453099314       -0.62132108007447
C            3.63000790305131       -0.88100029367557       -0.63070622554514
C           -3.46127007814658       -1.23199966866836        0.45927530538985
C           -4.41219014264963       -2.27286355864576        0.63369433051857
C           -3.86687461992083       -3.43797951432588       -0.00516415495481
C           -2.65179198388624       -3.08261606509165       -0.53927625289657
C            5.98611740722785       -1.32748719513963       -0.91872343504005
C            6.14662577416829        0.01745556854321       -1.30483171376841
C            5.03062847752727        0.90818270914955       -1.31872041340983
C            3.74717835403724        0.48374651035109       -0.85799367124917
C            7.41167901870475        0.49755444683066       -1.71126373900158
C            7.56974376020289        1.77208313570771       -2.17447439409169
C            6.45457971031388        2.61515505545377       -2.28553650299463
C            5.22182571082097        2.19125339986299       -1.87088241620934
C           -3.64723752314372        0.07847077931731        0.87532209816244
C           -4.82089356009016        0.30202493351129        1.65661932316720
C           -5.79431979904079       -0.72996078185497        1.83197620432895
C           -5.58821207536371       -2.01421305382814        1.29333052785379
C           -5.03039472477263        1.52259390621523        2.33065803352323
C           -6.16182060408821        1.75164503571215        3.06389692786374
C           -7.15239049015209        0.76424812549709        3.16951760273970
C           -6.96227259136014       -0.45071394401792        2.57748583069495
C           -4.56834861827904       -4.72525985582943       -0.01716061456840
C           -1.91159504071264       -3.79411820953582       -1.57433426613000
C           -1.85689186649396       -5.18581048674722       -1.61655225706041
C           -1.25652486180405       -5.83426474093264       -2.67980681812928
C           -0.68256340942372       -5.11243448696113       -3.71134003927167
C           -0.73372782358589       -3.72845047388272       -3.68311495207110
C           -1.35132727002788       -3.07584943378698       -2.63588853739731
C           -4.11999843442280       -5.77104855359057        0.78630582986959
C           -4.81476765153169       -6.96538368634027        0.83398196532009
C           -5.96814785870953       -7.12759674782055        0.08487879796960
C           -6.42701297053972       -6.08818676203069       -0.70643142984266
C           -5.73552215120791       -4.89105263816267       -0.75370484658258
C            5.01827530307566       -4.25223305776612       -0.01377305198100
C            4.80053849273910       -5.48974347486258       -0.61020109690389
C            5.62112321825914       -6.56450208945765       -0.31968120837795
C            6.67506557618181       -6.42186033431929        0.56602108601076
C            6.90634503734626       -5.19226822647533        1.16005356288105
C            6.08774970332236       -4.11742358855281        0.87189442747072
C            1.89483302845267       -3.95618148095176        0.30880201326791
C            1.38779502686092       -3.89590978210690        1.60554074522412
C            0.54133142365655       -4.88393288333074        2.07071456874429
C            0.21448285275022       -5.95791653985638        1.26007055956571
C            0.72065625334328       -6.02964555101551       -0.02618090400633
C            1.54260120168104       -5.02638874728555       -0.50631242162452
B            2.49889362938188        1.29914209458570       -0.45871418717924
B           -2.55271057702231        1.05373909278411        0.38526890696620
C            3.90927995073713        6.29623837508471        0.34429674791267
C            5.35079272258398        5.77903732772183        0.34064093006730
C            3.75369510675738        7.27474295258939       -0.82902664723443
C            3.67659507668016        7.03369879091990        1.67063618951685
H            0.07609776321633       -2.77564174209252       -0.44458024629028
H            4.29227530339112        3.59621125913231        0.02970094861491
H            1.22070285288682        6.56959179101689        0.33402813457979
H           -1.70198458415181        6.45759706273360        0.33970975611814
H           -4.53386259154378        3.23729896712307        0.31091580618711
H           -5.05005757084829        7.60807944562974       -0.91444100406908
H           -3.30175721159995        7.39316611707040       -0.93841059987486
H           -4.33585468605836        6.26120830673708       -1.80616634525423
H           -6.50980306829673        6.14274853856995        0.37251137089669
H           -5.90715697700929        4.72974388173584        1.23136834072259
H           -5.93006174792912        4.75472915772362       -0.53960535071539
H           -4.27431508524569        6.21141290754902        2.49368539932355
H           -3.27515956014561        7.37223773478266        1.62272097710615
H           -5.02424706482878        7.57208403675935        1.65379273433930
H            6.84257742515836       -1.98587567400724       -0.89764088073794
H            8.25392727117188       -0.17901911935101       -1.66741937209205
H            8.54170896661294        2.12693918889558       -2.48490256039746
H            6.57554366037953        3.59967949286680       -2.71507995761794
H            4.35824438844652        2.82333378933058       -2.00174510778253
H           -6.33892703825070       -2.78091692707851        1.42065763700515
H           -4.25477861324399        2.26978800511675        2.28609713716364
H           -6.29481080359614        2.69306052964447        3.57770464239475
H           -8.04840906970814        0.96327781752723        3.73946029956975
H           -7.69917367547757       -1.23455388853604        2.68404910734880
H           -2.29108602697622       -5.76301124680529       -0.81754153971563
H           -1.23940127421931       -6.91428912564907       -2.70295227897785
H           -0.20947557150510       -5.62269484208243       -4.53742837067821
H           -0.30221738654000       -3.15295257377417       -4.48921067176117
H           -1.41716775474544       -1.99827911574573       -2.64858148354183
H           -3.23027313938174       -5.63335174312231        1.38583216074150
H           -4.45950759028114       -7.77040171087795        1.46134439654492
H           -6.51164603844456       -8.06026823209689        0.12434062716185
H           -7.33023451809517       -6.20974113193645       -1.28634551243446
H           -6.09419699540482       -4.07751830881420       -1.36784751265167
H            3.99741234863133       -5.60928224339553       -1.31900238976608
H            5.43932747260306       -7.51873938553396       -0.79298078285650
H            7.31517084165528       -7.26239875394925        0.79033744680838
H            7.72756285364301       -5.07135865482327        1.85204901447585
H            6.26285015090559       -3.16310489335457        1.34776635395472
H            1.65734071270079       -3.06562323693084        2.24324030969512
H            0.14300476724614       -4.82005331340969        3.07250340929442
H           -0.43207918420812       -6.73942868303846        1.63113578442832
H            0.47411609307512       -6.86730259020902       -0.65973088652922
H            1.88825405265667       -5.05580318950940       -1.52885532911258
H            6.03446333272946        6.61833585643418        0.45461970420627
H            5.52351984433181        5.09167316302788        1.16544533730709
H            5.58905314325483        5.27766979231989       -0.59428844789658
H            4.48246637854642        8.07867660516880       -0.74734137683323
H            2.76135784808243        7.71703714408655       -0.84932091793041
H            3.91457701086479        6.75715953810696       -1.77251419118805
H            3.75109188589560        6.33886069678443        2.50448659231259
H            4.42497256643870        7.81236659448180        1.80265611991820
H            2.69572744814803        7.49973787114871        1.70281619794658
