132
energy: -196.936064394850 gnorm: 0.001851701497 xtb: 6.7.1 (edcfbbe)
C           -1.24148138387589        0.31421802646763        0.14249211057615
C           -1.16943351666763       -1.07919964827654       -0.07111914487195
C            0.05566009493642       -1.72507742889174       -0.20152066664545
C            1.24126792099054       -0.99744387694945       -0.22441166634332
C            1.23093419352493        0.41590557772004       -0.21682011758907
C           -0.02488013094973        1.00851813665384        0.01081005745849
N           -0.06770773627285        2.36078310164604        0.11780146707041
N           -2.37108553154974       -1.76174963303033       -0.09364630598996
N            2.48089679911693       -1.60451963931103       -0.28046638392617
C            1.01222312939120        3.19558351136556        0.04273569888180
C            0.58522891355075        4.53027009142885        0.20823729761196
C           -0.85885514365363        4.47292712370076        0.35400440557989
C           -1.19808687291785        3.10394411669716        0.31574528356478
C            2.32644386798686        2.79144210243780       -0.17389762373140
C            3.25886548237843        3.83776806457302       -0.08898483484243
C            2.89720560325937        5.16920487852824        0.08813308973848
C            1.54617209573131        5.52066227279238        0.21126928513827
C           -1.88176819359772        5.38849115623617        0.49554390479671
C           -3.20680683043691        4.93672087510220        0.56269180486990
C           -3.48049316811655        3.57304670867408        0.54737137844643
C           -2.48167024893329        2.58960147152054        0.47466477266630
C           -4.31501643682410        5.97696299735364        0.67331004940088
C           -4.24840610209331        6.91634547066111       -0.53931003508513
C           -5.71562764344659        5.35853772740947        0.71376956930737
C           -4.11507631510909        6.77985320962191        1.96683843787421
C            2.83520048025236       -2.93575280106542       -0.06071841523598
C            4.16381917550893       -3.11207409518480       -0.34483758862398
C            4.67786559695611       -1.83615630120273       -0.76995438651698
C            3.59691858361471       -0.91650936639860       -0.68915487390552
C           -3.48775963707898       -1.23570818373773        0.50816800829579
C           -4.48102028374347       -2.25148858442662        0.56298284989430
C           -3.92124408880645       -3.40407302995984       -0.08491498212089
C           -2.65514411450362       -3.07068813077949       -0.49021979470354
C            5.90707860786022       -1.39978176260155       -1.19615767826776
C            6.04182554080787       -0.06211302247595       -1.61761524328240
C            4.94055372233687        0.84447645098084       -1.53551658852269
C            3.70086209184882        0.44283634471987       -0.95169485160012
C            7.26536761065219        0.39418986785167       -2.15689801964203
C            7.39308597604087        1.65969886184414       -2.65298944722069
C            6.28551076790227        2.52020018642782       -2.65805691894476
C            5.09551612854562        2.11996778810026       -2.11538675952873
C           -3.66615809277446        0.06243698536773        0.96553112861469
C           -4.87988206610457        0.28216117843848        1.68448269538803
C           -5.89741264929917       -0.72054676848567        1.73436989122523
C           -5.69658259268662       -1.98177339934035        1.14083218699852
C           -5.08856027801792        1.46634220363971        2.42057631186545
C           -6.25882461868991        1.69725298274489        3.08967764571848
C           -7.29106352922289        0.74764359765897        3.06354797995912
C           -7.10438467060171       -0.43768166576361        2.41279762311284
C           -4.65503439433213       -4.65975319403392       -0.28930393413538
C           -1.81522944245403       -3.82238445957197       -1.41696001591643
C           -1.66443002173409       -5.20197385908926       -1.30634843774682
C           -0.92668645565834       -5.90263189330731       -2.24314066983402
C           -0.32167249779099       -5.24027662179746       -3.29681505263738
C           -0.47458991702108       -3.86842851597482       -3.42173651900778
C           -1.22196904107553       -3.16596451273432       -2.49849097510773
C           -4.45971686325558       -5.73848679322557        0.56694224173785
C           -5.17640773195679       -6.90846823591112        0.39310248108963
C           -6.10021824462040       -7.01029183691495       -0.63256129955951
C           -6.31013092540356       -5.93546279454884       -1.47985148950498
C           -5.59393824722645       -4.76470191119815       -1.30827477322821
C            4.99367871504884       -4.30267892961668       -0.15979537410570
C            4.72952059218299       -5.50239390710544       -0.81149057956594
C            5.54429953692568       -6.60224516029832       -0.61500624776885
C            6.63980358304923       -6.51767285141863        0.22681983633839
C            6.92226539340562       -5.32201284201460        0.86651676693265
C            6.10826080177161       -4.22244676868889        0.67338718040802
C            1.93754900823484       -3.86961148518702        0.62768929656377
C            1.49627304343560       -3.53369564807211        1.90842692884833
C            0.66776167947200       -4.38632993384871        2.61015501808925
C            0.27933921214441       -5.59332588397566        2.05191194458487
C            0.71921965061704       -5.93743996253709        0.78631221858581
C            1.53716025937385       -5.07902795890209        0.07304931955574
B            2.48851915418031        1.27220504833122       -0.46990805294111
B           -2.54103861691137        1.03777692720628        0.54743446949446
C            3.93473385756750        6.28486852175720        0.13292282459219
C            5.37159901727487        5.77375703513200       -0.00773359196778
C            3.66532084927093        7.25928125067349       -1.02327691337811
C            3.82445884579752        7.02386060094955        1.47412275190591
H            0.08190161369929       -2.79667874153432       -0.28394259263003
H            4.30187937646735        3.57870644532230       -0.15007758099777
H            1.25240410454698        6.55275744191991        0.32661086889904
H           -1.65571525607019        6.44311151618373        0.53528928040906
H           -4.50350501920202        3.23859400129458        0.57592531890555
H           -5.04784236583812        7.65264595882824       -0.48818642532920
H           -3.30156706368135        7.44752399115882       -0.58181460346878
H           -4.36129309910356        6.34772444378503       -1.46012550190021
H           -6.45707058125790        6.15171755172163        0.78969310524354
H           -5.83471404456862        4.70507061102110        1.57475553147977
H           -5.92173483470215        4.79301377999014       -0.19197112471890
H           -4.14782350060534        6.11618763811423        2.82860677897984
H           -3.15892552133002        7.29593724413821        1.97190341041902
H           -4.90271928620908        7.52296917607693        2.07336688384098
H            6.75502055812456       -2.06791850970045       -1.24393895205929
H            8.09840401094496       -0.29447593062195       -2.18906723142800
H            8.33250402773040        1.99408362080682       -3.06845409766673
H            6.37701820807084        3.49889980899081       -3.10732868251045
H            4.23316554669111        2.76548587342256       -2.16272684069070
H           -6.48118729718754       -2.72422948174272        1.16759564555617
H           -4.28090843516323        2.17828352371025        2.47871079769455
H           -6.39181150618108        2.60911328482658        3.65439380576363
H           -8.21740979041414        0.94941431395433        3.58170607348655
H           -7.87535151631458       -1.19582850794295        2.42170379046439
H           -2.12188694952922       -5.72330669436463       -0.48130193818296
H           -0.82391255381578       -6.97322503508371       -2.14929153623877
H            0.25892966722886       -5.78881431834261       -4.02315886085823
H           -0.01476576175900       -3.34495365072586       -4.24718435648796
H           -1.35404354291135       -2.10038332465753       -2.61485146148817
H           -3.74962940939452       -5.65003230882013        1.37856556871901
H           -5.01659726400100       -7.74209227399314        1.06235620110217
H           -6.65979950018157       -7.92426491476270       -0.76702400022856
H           -7.03499418518707       -6.00958554569972       -2.27773139065432
H           -5.75607384790437       -3.92365324956252       -1.96754961651690
H            3.89755034386188       -5.56542086811147       -1.49550182978848
H            5.32654174170569       -7.52883950450100       -1.12642741281984
H            7.27527332700715       -7.37767963139928        0.37902818067625
H            7.78033157245472       -5.24768583491412        1.51914091445879
H            6.32326867140868       -3.29184365730086        1.17910574502404
H            1.80634661779339       -2.59576853695604        2.34656461466075
H            0.32689806426926       -4.11026235103337        3.59695926671573
H           -0.36575563775378       -6.26193724756121        2.60266426990712
H            0.42008726624260       -6.87686274754599        0.34712652861078
H            1.83557956197812       -5.33547329260464       -0.93075736195837
H            6.05884008480930        6.61710671778966        0.02990431363390
H            5.62935768184982        5.09587318316888        0.80263210815127
H            5.51824514985115        5.26372265375914       -0.95682427890964
H            4.40511595271588        8.05686127479348       -1.02240814444852
H            2.68031444960910        7.71077381719607       -0.94349177266746
H            3.72298531970533        6.73574164398822       -1.97541421674994
H            3.99461165800001        6.33295335826477        2.29724447399121
H            4.56866219071782        7.81574767361585        1.52879631106584
H            2.84312969527369        7.47179645704341        1.60371006370570
