132
energy: -196.909331977780 gnorm: 0.024507899186 xtb: 6.7.1 (edcfbbe)
C           -1.32198795222708        0.33454278314789       -0.26024403567316
C           -1.23083461502814       -1.05813376958681       -0.31172991167453
C           -0.02277643638270       -1.74234065616853       -0.24393968221911
C            1.16107139791148       -1.02325943912890       -0.32298659167791
C            1.15076430095548        0.38628566566249       -0.41601420122173
C           -0.09963391187772        0.99971270246965       -0.32548034851606
N           -0.14286007186005        2.34577796234451       -0.22557199289308
N           -2.43433704462776       -1.71562142391757       -0.31420850169694
N            2.40672588309579       -1.60849621277564       -0.24876737858016
C            0.93864344384993        3.15998115696112       -0.12098638465108
C            0.50683369397440        4.48322381803823        0.04247406567406
C           -0.92917287637992        4.44310749587618       -0.00892399154679
C           -1.27852143465107        3.09118827787973       -0.13998125627159
C            2.25527611562590        2.74194118760373       -0.15843551716480
C            3.17580010805702        3.75419363143478        0.13215297765311
C            2.79279383463236        5.07227152705442        0.31891024877363
C            1.45033518554828        5.45621846298019        0.24605661820288
C           -1.93073561879644        5.37713859417310        0.04631801901334
C           -3.25543257431964        4.94024808771062       -0.04176951785128
C           -3.56092756191380        3.59069082717969       -0.10689916707852
C           -2.57366585351805        2.60276932741520       -0.10647061690722
C           -4.32266529681645        6.00716444263870       -0.02261907539035
C           -4.07518430203603        6.93744999189163       -1.21636092978096
C           -5.72599460274950        5.41577462284062       -0.12977979470807
C           -4.19717892017359        6.76424326703235        1.30531205965612
C            2.77301330611886       -2.90268987127725        0.06624943084697
C            4.13474983835363       -2.98561966594155        0.16201029282371
C            4.67162556450526       -1.71067581565283       -0.17000996520030
C            3.55861141288902       -0.87487224311235       -0.40114366018286
C           -3.50450005090854       -1.16044934255801        0.32683795234523
C           -4.44539662937183       -2.18075158585199        0.57857014598977
C           -3.91669214859462       -3.35695357810967       -0.03666465330124
C           -2.71633019753033       -3.03552089490071       -0.63332841283574
C            5.94863135936576       -1.25914408241676       -0.37242660800494
C            6.11377029010382        0.05295996691713       -0.84289194949115
C            4.98987963335462        0.89521160982912       -1.04543168170109
C            3.68223308791435        0.45822633365676       -0.72928618765713
C            7.39735588132389        0.54091425894899       -1.15612440543205
C            7.55126666070946        1.78830096761632       -1.68549443071209
C            6.43092907266805        2.58802616725404       -1.96033670173068
C            5.17457649000495        2.14821167070125       -1.65785810021053
C           -3.67154364680804        0.16325430104748        0.67813096232267
C           -4.79671944905568        0.43361153567366        1.49504672462055
C           -5.74680062412876       -0.58681536657917        1.77971703536770
C           -5.57363716468522       -1.90007088722687        1.30641279969590
C           -4.95358051778850        1.69747438577795        2.09497448330900
C           -6.04958578281380        1.97035913548770        2.86196474477272
C           -7.02794142220593        0.98816994689502        3.08060906478200
C           -6.87152434673959       -0.26582856623296        2.56755344904063
C           -4.51837154887567       -4.64523340034133        0.17139667740664
C           -2.08927991694170       -3.68865484667253       -1.76816176456137
C           -2.47925488716359       -4.97578201433061       -2.14474457702608
C           -1.95248483912631       -5.57177311757309       -3.27123677841350
C           -1.02408391514565       -4.90302951987416       -4.05026198000219
C           -0.69001732297279       -3.59863594152861       -3.73335489161295
C           -1.23375661905601       -2.98574782905643       -2.62225297250751
C           -3.70235416554313       -5.68184214986772        0.62061509323476
C           -4.26607919132028       -6.91205452580375        0.87328132509992
C           -5.63375279981760       -7.08190474245456        0.71560690712936
C           -6.44542634485624       -6.03484034357999        0.31299585405505
C           -5.88834583645924       -4.80408282971335        0.03104066328159
C            4.96603054621049       -4.13887073828904        0.40013998995191
C            4.68678306435144       -5.35044944551324       -0.21854593027269
C            5.52846164659602       -6.42026824976340       -0.00391551917515
C            6.65504797917062       -6.26576980923086        0.78791246010675
C            6.94581151686052       -5.04805280394772        1.37941927792402
C            6.09153753618353       -3.98090297591022        1.19986546577809
C            1.94459323208771       -4.08324753868075        0.23372913583303
C            2.17827556960084       -4.86296607074904        1.36302956224392
C            1.56311611132444       -6.09233953128613        1.47444189629903
C            0.70835766179450       -6.52426647813482        0.47332978227031
C            0.49484903459789       -5.75848599898090       -0.66025806362346
C            1.13255621612257       -4.54102358094726       -0.79769224315264
B            2.40923534863587        1.24989747612214       -0.49375763890796
B           -2.61613810399740        1.07996746960273        0.06300727560046
C            3.79444620255057        6.17061707172802        0.58494360919417
C            5.22749387290162        5.64597753627223        0.63200208961101
C            3.67282654568922        7.18790470936232       -0.55680356756630
C            3.44779111410543        6.81023286805764        1.93483481014802
H           -0.05063466992989       -2.80896396736955       -0.12835333426908
H            4.20965198772341        3.46711072619184        0.22262887110699
H            1.12733206511077        6.47764495574364        0.36832075164062
H           -1.66517030213311        6.41765388354379        0.14366282599845
H           -4.58316761397833        3.25511013083757       -0.16668249612188
H           -4.84171428647620        7.70512459990164       -1.26949651731381
H           -3.10588196092430        7.42320131027591       -1.14305695091129
H           -4.08922549303698        6.36089378856009       -2.14001362734483
H           -6.46271053467664        6.21367906277230       -0.12028110043229
H           -5.92768828925749        4.75093314235330        0.70733029988704
H           -5.83594407826619        4.85754750381872       -1.05700093548631
H           -4.29448583433904        6.06629362252785        2.13550353210434
H           -3.22929312582472        7.25049142025388        1.39203281484913
H           -4.97141559164928        7.52121735206083        1.38929536247604
H            6.80088381750447       -1.90503127927068       -0.22908730355599
H            8.23385611135170       -0.11923867341663       -0.97684879607885
H            8.53852313534462        2.15364293501696       -1.92384959951550
H            6.56267976842035        3.55305687784169       -2.42772008983996
H            4.29292944941006        2.71850454913996       -1.90610272002069
H           -6.30200327280791       -2.66109298536366        1.53930957494511
H           -4.16863864131496        2.42366146096128        1.95356192683437
H           -6.16034283290264        2.94644497195353        3.31260725982779
H           -7.89556988562141        1.22234337753507        3.67912730150428
H           -7.58811435782325       -1.05356995503665        2.75209987328663
H           -3.21629659228727       -5.50557133524254       -1.56750751630754
H           -2.28218253500415       -6.56772777924316       -3.53123773408461
H           -0.58895169493153       -5.38450403122838       -4.91282398778406
H           -0.00731312003339       -3.03667258962825       -4.35587897436061
H           -0.99930717607744       -1.95038176383552       -2.43671588306191
H           -2.64556836919429       -5.48895379602925        0.74913728529661
H           -3.63469766462062       -7.72864781673851        1.19151386734396
H           -6.07235396560168       -8.04778569472959        0.91098830695550
H           -7.51239959954063       -6.16746970691402        0.21033433716541
H           -6.47804521660390       -3.96986403930675       -0.31971465330399
H            3.82435090417330       -5.42804925702160       -0.86323036701753
H            5.30091797011024       -7.36912482438930       -0.46728379875253
H            7.31587059093179       -7.10435181816459        0.94353285577416
H            7.83385820824524       -4.91950413971286        1.98135666378982
H            6.26671638664750       -3.02634431554827        1.67512188564325
H            2.86697693606400       -4.49911386931950        2.11046280296742
H            1.77189863515846       -6.71364488684916        2.33266603422690
H            0.21805288466593       -7.48173895958844        0.56509817115223
H           -0.14930621397736       -6.10950039822863       -1.45177987605973
H            1.03484624640840       -3.95051610094956       -1.69703947864965
H            5.91283946919823        6.46821985637000        0.81656468328788
H            5.34434304015025        4.91640532214825        1.43031960617983
H            5.49682767816540        5.17832908254069       -0.31231056062845
H            4.40336058206889        7.98315873154149       -0.44123104116459
H            2.68192562684834        7.63277824913025       -0.58519941668304
H            3.84136430363433        6.68985241445895       -1.51037171466108
H            3.46532628561724        6.05164235653749        2.71577206336694
H            4.16310033802149        7.58852747347261        2.18484246145083
H            2.45349728337862        7.24842146601653        1.91958568307574
