132
energy: -196.928941318010 gnorm: 0.006969292452 xtb: 6.7.1 (edcfbbe)
C           -1.28451484030062        0.36055542999142       -0.13866354555616
C           -1.20343705405848       -1.03793132550579       -0.28180606168162
C            0.02627078976610       -1.69520550496062       -0.31749279160069
C            1.22032369299910       -0.97787505876846       -0.30997419037321
C            1.20686280208101        0.44023545489725       -0.31402131251632
C           -0.05871641360879        1.04575711561972       -0.20391481029833
N           -0.11050686779971        2.40211057517495       -0.12351622571541
N           -2.40590947345567       -1.72472811074026       -0.29170408868621
N            2.46362744229533       -1.59395268865076       -0.27372713908047
C            0.96993010534561        3.23674150104818       -0.08416967443074
C            0.53652960089036        4.57353897283279        0.03242272304123
C           -0.91631793697911        4.52035233894042        0.01990986746421
C           -1.25117346842151        3.15080120336594       -0.03427305539600
C            2.29596020633978        2.82290469983060       -0.13493154082526
C            3.21725622212551        3.85438046600730        0.09783813978958
C            2.84772547800214        5.18557234062449        0.25988772762992
C            1.49747076125652        5.55377332370005        0.18510078480211
C           -1.94668553510736        5.43909201485605        0.04776633717657
C           -3.27318709771515        4.98960393938040        0.00415948454059
C           -3.54535368265684        3.62505395176835        0.00427617796228
C           -2.54503278247750        2.64251824256795        0.03645817951723
C           -4.38917504248945        6.02774138835676       -0.00050752453148
C           -4.20449961668002        6.97538061347695       -1.19394659101836
C           -5.78269436162506        5.40213978072557       -0.10759173812825
C           -4.32385599905262        6.82632849362360        1.30925995863647
C            2.82807509382676       -2.91957664561656       -0.03826819658815
C            4.19333420161179       -3.03621828359410       -0.00797511589564
C            4.73575074367352       -1.74145087964539       -0.30379950177129
C            3.62523530064085       -0.86701904010230       -0.44136590844622
C           -3.48566286073274       -1.18904785405164        0.37028926617213
C           -4.40715370968640       -2.23682930218148        0.62827051442801
C           -3.87246954266788       -3.41886038011432        0.00956547548692
C           -2.69137194783601       -3.06101899962862       -0.61162177872412
C            6.01236123447052       -1.27808502764741       -0.50025068208595
C            6.18944912503729        0.05514682442953       -0.91527490671484
C            5.06595227048630        0.92215458127581       -1.05390610342763
C            3.75380320447740        0.49165799104513       -0.69206351655329
C            7.47722936990721        0.54179372568107       -1.23308958453528
C            7.65109381433426        1.80034964790402       -1.73255877278291
C            6.53521300830326        2.61604118056906       -1.96984937740347
C            5.27894746416435        2.18638459948344       -1.64067815934123
C           -3.68345132986768        0.13652696861582        0.72895981102095
C           -4.84334931826073        0.37929144814803        1.52543490860709
C           -5.77159967860268       -0.66821090766439        1.81155169632870
C           -5.54902082229526       -1.97789828845781        1.34534555894507
C           -5.07898860193341        1.64097759118642        2.10969947490599
C           -6.19199970885098        1.88350263829091        2.86670934122497
C           -7.13209860326766        0.86861888040061        3.09601761916118
C           -6.91596672768959       -0.38030514159310        2.58994456235590
C           -4.50765487613758       -4.72168525852472        0.17490136576093
C           -2.06458362426076       -3.72096070321725       -1.75060589820604
C           -2.30614408020451       -5.06664169133949       -2.04766873467712
C           -1.82230477484538       -5.63647387030786       -3.20987144671722
C           -1.07063552191318       -4.89068281938412       -4.10376930617749
C           -0.84560076775636       -3.55042404972963       -3.83906720239936
C           -1.34762182536629       -2.96939500175939       -2.69102890839218
C           -3.78358118051749       -5.76880527376459        0.75114732865628
C           -4.39210252614588       -6.98274302652178        1.00374894036706
C           -5.73231956998122       -7.16535116791647        0.69758013621254
C           -6.45979524749037       -6.12943055349727        0.13653461112006
C           -5.85428776112835       -4.91228410624682       -0.12218989582752
C            4.99426228981622       -4.22230157399264        0.27734672720196
C            4.74714132846737       -5.44774627015163       -0.33441109950395
C            5.54592785951531       -6.54063470532709       -0.05319945419926
C            6.59623635491794       -6.42897088933119        0.84182954199743
C            6.84724694311626       -5.21455719640648        1.45781232959377
C            6.05422225876921       -4.11859638967051        1.17712272936454
C            1.95722429093426       -4.08437945102778        0.17668035384254
C            1.97794154600047       -4.71692116692365        1.41798550770290
C            1.29001538238099       -5.90183684405189        1.60831154612205
C            0.59266579454095       -6.47290498547663        0.55713292962976
C            0.58606670000746       -5.86152285745533       -0.68651071799440
C            1.26377798195572       -4.67233318120794       -0.87989375292381
B            2.47902710905757        1.30557471427021       -0.41357339013282
B           -2.59852243501586        1.09811046000959        0.19060648450375
C            3.88139678286587        6.27016053314647        0.54016473794235
C            5.31143669066412        5.72629010065457        0.60522792523257
C            3.82886346367419        7.33162659315583       -0.56650454805494
C            3.55723585336337        6.91680406313928        1.89488491855459
H            0.03439993733077       -2.76968998068106       -0.33140490647291
H            4.25503509107078        3.58064958119438        0.17605192449667
H            1.19940354600353        6.58749102546729        0.27633151705025
H           -1.72121415287014        6.49409566015554        0.08925636263435
H           -4.56723316895828        3.28716617468376       -0.03766103006728
H           -5.00063842421335        7.71683100678881       -1.20882895162034
H           -3.25505446839080        7.50096951700387       -1.14453423978806
H           -4.23649567526771        6.41645560603160       -2.12699734006801
H           -6.53277306921759        6.19050035304952       -0.12644038448320
H           -5.99390874024042        4.75999602406779        0.74423865214481
H           -5.88146333662474        4.82310546077361       -1.02290744908058
H           -4.45158029964291        6.16171313760342        2.16128023420483
H           -3.36956219100451        7.33519837133956        1.41551749413065
H           -5.11351433104165        7.57431707545833        1.33303059214118
H            6.86815071756604       -1.92741655000581       -0.38720046104082
H            8.32094610333145       -0.11937626948305       -1.09194911241002
H            8.63961913737263        2.16182293229081       -1.97630772901325
H            6.67449540412332        3.58447247245870       -2.42939274680655
H            4.41730553732055        2.79391085068931       -1.86694033328999
H           -6.26174105874421       -2.75828959691946        1.56882307771058
H           -4.33846543910031        2.41169492049667        1.97337396855658
H           -6.34736938950148        2.85911308760990        3.30551916040250
H           -8.01014783370828        1.07593863441398        3.69056265442153
H           -7.61221284609960       -1.18367304676607        2.78622744851733
H           -2.89189264041285       -5.67400342615717       -1.37693147346917
H           -2.03944772885247       -6.67566528347718       -3.41775992176482
H           -0.68210869974127       -5.34369212353602       -5.00406627718859
H           -0.28645245182041       -2.94507935284307       -4.53897342521256
H           -1.19894319113044       -1.91172695823481       -2.54087866072597
H           -2.74392832533314       -5.61124074967836        1.00815430374927
H           -3.82130375078827       -7.78687978819382        1.44685506679066
H           -6.20835937134130       -8.11364016264001        0.90017108072498
H           -7.50593457561248       -6.26776042619673       -0.09768116198787
H           -6.41750819946866       -4.10606323996196       -0.57049598034036
H            3.93587309107570       -5.53554324810379       -1.04171414178825
H            5.34973274752882       -7.48503897289001       -0.53980599768676
H            7.21846041789502       -7.28516540369258        1.05790947153959
H            7.66371372467199       -5.12011240061847        2.15946026506343
H            6.23916579876537       -3.17395391530575        1.66784668814286
H            2.54521462642187       -4.27630228765930        2.22593922559427
H            1.31408213071882       -6.38785687577825        2.57379445523770
H            0.06396241945777       -7.40409281916591        0.69998939995396
H            0.06208462945728       -6.31693530888418       -1.51292604936717
H            1.27300735947489       -4.20328452965977       -1.85469676409161
H            5.99945680310070        6.54232172142733        0.81694442045511
H            5.41506468733549        4.98833667622952        1.39672929432047
H            5.60483633220322        5.27559072535004       -0.33996200485254
H            4.56744085689395        8.10679183440431       -0.37439611006015
H            2.85116366859360        7.80247953240011       -0.62254716121721
H            4.04605671880197        6.88024192132163       -1.53231077862486
H            3.57852717458742        6.16625467905214        2.68246581486049
H            4.29002521713448        7.68583569339360        2.13058251914810
H            2.57238613368475        7.37569012532456        1.88970602683792
