132
energy: -196.941143865220 gnorm: 0.003931451909 xtb: 6.7.1 (edcfbbe)
C           -1.25466097715746        0.35088271493406        0.18328590970942
C           -1.18853887679411       -1.04575051582462       -0.01670500145191
C            0.03567816294146       -1.69267846705785       -0.14873114854661
C            1.22332026204330       -0.96699854375497       -0.17133579751861
C            1.21860736429482        0.44515496464492       -0.16112166104819
C           -0.03633113720953        1.04217744887815        0.05817548514905
N           -0.07331829411579        2.39542476534978        0.16084053452294
N           -2.39475946248672       -1.72420049681498       -0.03267807726194
N            2.46059354795721       -1.57912640235519       -0.24179362315388
C            1.01064703557533        3.22545655757513        0.09706393378876
C            0.58769779335518        4.56329717720716        0.25041662801578
C           -0.85992447411241        4.51366496469037        0.36737476671876
C           -1.20300175011287        3.14559984555750        0.33426170569606
C            2.32537577029222        2.81467684688933       -0.10346449693936
C            3.26364254836124        3.85362245358273        0.00124949004119
C            2.90745363253859        5.18629500326415        0.18133915119898
C            1.55609453840048        5.54645189439126        0.27518719301748
C           -1.88518251917693        5.43221923878051        0.47581991371753
C           -3.21245536388812        4.98333590094164        0.52226987908184
C           -3.48854370534945        3.62018367619960        0.51894973864553
C           -2.48988829159428        2.63571045852613        0.47504341935792
C           -4.32375665673972        6.02363315032049        0.60098147519960
C           -4.24085349389717        6.94819044214717       -0.62179746760200
C           -5.72413594163062        5.40335516309305        0.62737039712793
C           -4.14559646965558        6.84198386585423        1.88797945152594
C            2.81886158635089       -2.91567954449843       -0.05600402433240
C            4.11668585545151       -3.10052808998574       -0.45292298964754
C            4.61929197969592       -1.82852476894798       -0.88495232738062
C            3.55892714980371       -0.89708329220312       -0.70762149801903
C           -3.52110769052255       -1.17916020681930        0.53880068577373
C           -4.53204838979635       -2.17951628578315        0.57853418996656
C           -3.97243006602145       -3.34552919536164       -0.05218780378360
C           -2.68664091767522       -3.02893197557310       -0.41702518213371
C            5.83516968670686       -1.39633619829486       -1.35261196013961
C            5.97308400259774       -0.04614050391392       -1.72807414250595
C            4.88818293855093        0.87033904390268       -1.56910842739917
C            3.66929720756066        0.46639503427636       -0.94420988208873
C            7.18353742072930        0.41560303326922       -2.29269133269484
C            7.31209750572418        1.69840932316516       -2.74132794856532
C            6.21638706894792        2.57178236268029       -2.67342710226393
C            5.04046059417676        2.16543752615996       -2.10506373761381
C           -3.69159549061662        0.12683182135627        0.97424542615481
C           -4.91665948037757        0.37809593974955        1.66147228679935
C           -5.95932564628737       -0.59734915008340        1.67482528271317
C           -5.76578060146788       -1.86588024908980        1.09339014813743
C           -5.11490124675415        1.56636962054020        2.39336729563880
C           -6.30129295128968        1.82886698566811        3.02109678042033
C           -7.35995550191308        0.91129280794946        2.94922866446358
C           -7.18401661966044       -0.27860505162523        2.30340152457543
C           -4.68443509219649       -4.59636221129730       -0.29061560873335
C           -1.78233974872144       -3.87103231278671       -1.19752242468613
C           -1.56189618680506       -5.19608965471568       -0.83220437613102
C           -0.76049560228035       -6.00884434953621       -1.61147592242836
C           -0.16266390425787       -5.51014645625045       -2.75619223445690
C           -0.37846074289210       -4.19288218431801       -3.12779643346642
C           -1.18865784656183       -3.37883581712288       -2.36076741872682
C           -5.44950322633683       -5.16479858408237        0.72417007238206
C           -6.13516220282260       -6.34677491916662        0.51236853331989
C           -6.06910403970636       -6.97777831159021       -0.71706664584066
C           -5.31669831638199       -6.41608727056169       -1.73559399373214
C           -4.63352554378451       -5.23380744388218       -1.52975397652515
C            4.91095018930671       -4.33513701956951       -0.39091879449158
C            4.97948343162296       -5.18553936433296       -1.49004173682341
C            5.74085228740635       -6.33806554912992       -1.43342937724468
C            6.45243130914345       -6.64527547436921       -0.28455045135488
C            6.39605694527806       -5.79806662995267        0.80903101593148
C            5.62777926281088       -4.64891894628756        0.75760914155051
C            2.00590039204695       -3.90150615896251        0.64950762479684
C            1.33317324971347       -3.54554924691771        1.82127737052971
C            0.61836751839781       -4.48840480564561        2.53162234658714
C            0.58061941168871       -5.80490979509582        2.10095951108430
C            1.26578924652333       -6.17104048342066        0.95501133507620
C            1.96901780345865       -5.22779681713885        0.22847293175575
B            2.47846259111506        1.29784403022247       -0.41397782848783
B           -2.55383093867886        1.08627933193478        0.56353681166960
C            3.95257096816370        6.29300949694186        0.26234838134605
C            5.38857946071707        5.77060891656162        0.15974143340604
C            3.72566430501475        7.27858499216883       -0.89357312136448
C            3.81076848218976        7.02410113244547        1.60515998052796
H            0.06845856446514       -2.76416513570776       -0.22815282143128
H            4.30555292727208        3.58633860461164       -0.04477877529512
H            1.26762687499743        6.58061409350822        0.38648533409384
H           -1.65923407148446        6.48732559535271        0.50515963120804
H           -4.51185201781610        3.28581212802839        0.53458759462941
H           -5.04017306078995        7.68586023110177       -0.58890182733637
H           -3.29293805707590        7.47779387415467       -0.65949960793106
H           -4.34408554290278        6.36880363246711       -1.53710200384046
H           -6.46753662673137        6.19626013203390        0.68273483061171
H           -5.85545256383846        4.75982371451184        1.49399852144567
H           -5.91604315546718        4.82680266619110       -0.27452093563782
H           -4.20336827246878        6.18938576056645        2.75698114460915
H           -3.18521799652177        7.34951300941754        1.90774555789883
H           -4.92891133097169        7.59298041996146        1.96769176302657
H            6.66760678714436       -2.07689978275130       -1.45807220217202
H            8.00488615269991       -0.28231048895774       -2.37927207032429
H            8.24178944096497        2.03887754974946       -3.17398812428005
H            6.30649524237628        3.56692108371236       -3.08580648650211
H            4.18765321086700        2.82507535656702       -2.09364739593988
H           -6.57931726014494       -2.57643650287264        1.08074935222428
H           -4.28954598115105        2.25455425165173        2.48237618294891
H           -6.42785185805353        2.74096078257254        3.58688125204967
H           -8.29967447280751        1.14180996800473        3.42964667172758
H           -7.97819374683014       -1.01181786416660        2.28001724943887
H           -2.01825475949230       -5.58093049306343        0.06720347191126
H           -0.60235748738687       -7.03699089259934       -1.32406173914882
H            0.46696509508133       -6.14582235338999       -3.36103385970815
H            0.08006476718501       -3.79982446851033       -4.02365567997767
H           -1.36770598996779       -2.35550127684798       -2.65940849105253
H           -5.48232270550898       -4.68648641162409        1.69296035270628
H           -6.71954213120420       -6.77759426722185        1.31283590269367
H           -6.60162651199088       -7.90267868106975       -0.88196027738550
H           -5.27032550487666       -6.90103316216759       -2.69862275856784
H           -4.05977428270327       -4.79270009668766       -2.32942533995450
H            4.42830609673116       -4.93727124607699       -2.38742053295884
H            5.78204002614389       -6.99882570403111       -2.28795739426823
H            7.05044853934129       -7.54360411882395       -0.24293468725048
H            6.95367329011269       -6.03246995002169        1.70471671739836
H            5.57790975346443       -3.98625844636670        1.60971832519063
H            1.37904716134062       -2.52397131328549        2.17058114784326
H            0.09439112038847       -4.19835740858781        3.43117935498866
H            0.02249550581678       -6.54136264615310        2.66108804469976
H            1.25442030860057       -7.19787782097229        0.62151076718067
H            2.48552041396028       -5.51802201191830       -0.67354697018306
H            6.08080472880981        6.60926573087375        0.20584372125422
H            5.62194687919719        5.09837055281554        0.98220562348470
H            5.55486985422223        5.25092963049436       -0.78059345659278
H            4.45775674736790        8.08263724165371       -0.85058827741048
H            2.73383024111480        7.72086626036970       -0.85280297217344
H            3.83056863949662        6.76674099398334       -1.84837789089161
H            3.95798738651483        6.32786775102391        2.42832592256160
H            4.55612939789456        7.81305975967901        1.68327876218735
H            2.82807513573373        7.47476258109303        1.71287750707437
