132
energy: -196.939441103809 gnorm: 0.003094116774 xtb: 6.7.1 (edcfbbe)
C           -1.24137128218581        0.35268750480514        0.13041448370058
C           -1.16845433929533       -1.04246239765476       -0.07669039347333
C            0.05804206822250       -1.68425572848060       -0.20731586371429
C            1.24409242697590       -0.95650991014847       -0.20500064766956
C            1.23572008806928        0.45549666219022       -0.18840084971024
C           -0.02350696880968        1.04784563709788        0.01782614099479
N           -0.06482876622735        2.40011760964084        0.12937811554791
N           -2.36875164323145       -1.73012634441869       -0.08957649199051
N            2.48372053280422       -1.56514274804855       -0.25073223750820
C            1.01909852985415        3.23184687814362        0.08964409281458
C            0.59316407400899        4.56634872939717        0.26263013275623
C           -0.85497762762766        4.51317574200791        0.37120019405001
C           -1.19634804928881        3.14552848604317        0.30995855803020
C            2.33629024909777        2.82503910672661       -0.10378629572689
C            3.27127777072091        3.86495313715344        0.01770748630697
C            2.91151648051741        5.19511389163339        0.20831069158813
C            1.55928317300583        5.55130957460100        0.30328413551420
C           -1.88141400269589        5.42863884929523        0.49362434049635
C           -3.20878888170832        4.97826944192185        0.51685946093515
C           -3.48314920443963        3.61508661249120        0.48677454149561
C           -2.48326389161354        2.63188363301184        0.43660561271611
C           -4.32286916258809        6.01653778229823        0.58301881842134
C           -4.22581982996161        6.92902833238623       -0.64804676906981
C           -5.72207748113054        5.39321390151945        0.59929185181285
C           -4.16459363709798        6.84900221089574        1.86336037922854
C            2.83604266965783       -2.90291598328277       -0.05786028532443
C            4.14094901293706       -3.08987587059294       -0.42925377551452
C            4.65172082664592       -1.81541950862144       -0.85217029282392
C            3.58935391744038       -0.88271612661361       -0.69466197229808
C           -3.48913560933657       -1.19397794673932        0.50257648085853
C           -4.48240671977583       -2.20876571510120        0.58210273980550
C           -3.92388196617730       -3.36964596750846       -0.05001052400827
C           -2.65311053487081       -3.04601122435637       -0.45183184995132
C            5.86787090613106       -1.38514930050711       -1.32094493837767
C            6.00635041149047       -0.03614790236608       -1.70301016977077
C            4.92405340377278        0.88383609507185       -1.54492782175558
C            3.69963247309418        0.48075419491850       -0.93142628219224
C            7.21523048201502        0.42070245932015       -2.27409852029618
C            7.34958688216588        1.70500718446473       -2.71721179826373
C            6.26074835923347        2.58574555180841       -2.63827166165093
C            5.08282612459328        2.18115515485781       -2.07352143919010
C           -3.67041380864840        0.11165973323919        0.93587266845642
C           -4.88376694719181        0.34598283987668        1.65077772109484
C           -5.90348801355576       -0.65271929782098        1.71524538833033
C           -5.70122001548463       -1.92473339699215        1.14569684266671
C           -5.09043678754458        1.54211974430404        2.36764542723368
C           -6.26185350515579        1.78719860920081        3.02958101703596
C           -7.29782548147594        0.84157529407698        3.01354222040142
C           -7.11263847180255       -0.35484993930755        2.38276555941393
C           -4.64204662785310       -4.62520567650976       -0.27107144227855
C           -1.78681629026751       -3.91132833686784       -1.24543493744097
C           -1.68188126102199       -5.26375785708127       -0.92657066033304
C           -0.93790992036147       -6.11438596930991       -1.72136769986334
C           -0.27885973467098       -5.62809120497953       -2.83743393410445
C           -0.37577964711200       -4.28449266221472       -3.16183922746931
C           -1.13114490574026       -3.43219560295023       -2.38036672939499
C           -5.09595965361622       -5.36962670952381        0.81374029875027
C           -5.79329924117372       -6.54614456666283        0.61144554571264
C           -6.06201222239227       -6.98191518393069       -0.67583308907725
C           -5.62114773474713       -6.24107778410236       -1.76081332884253
C           -4.90979771943884       -5.07317335441001       -1.56264962361893
C            4.93731664723297       -4.32211775653908       -0.36146425521035
C            4.84662728308408       -5.28298474493502       -1.36349997792073
C            5.61176693767639       -6.43301904094662       -1.30158735496569
C            6.48249809202342       -6.63171167153555       -0.24308602571613
C            6.58909588249004       -5.67309065157513        0.75027227160011
C            5.82277867060301       -4.52314212199822        0.69142144904272
C            1.97668137472997       -3.85216908958550        0.64529727558290
C            1.31894366262666       -3.44718643962694        1.81010452517594
C            0.50047375719216       -4.32212680291291        2.49366024984265
C            0.34566258308494       -5.62489765463047        2.04514325188723
C            1.02866023669520       -6.04669023441600        0.91899231005184
C            1.83493645189874       -5.16815866740203        0.21749334088761
B            2.49811812469110        1.31004383745635       -0.41996995910036
B           -2.54382478131816        1.08117271803818        0.51334334106044
C            3.95452170943979        6.30346872619209        0.29211792973478
C            5.39206779743506        5.78234170724069        0.20215597219321
C            3.73287406832018        7.27947868886587       -0.87255490182781
C            3.80429101292260        7.04403961463703        1.62842194337840
H            0.08997243915576       -2.75433969306956       -0.30052011015119
H            4.31414571490115        3.60124671833894       -0.02486865076307
H            1.26813675636393        6.58335750175617        0.42662920424825
H           -1.65645810567557        6.48285953557004        0.55038299681402
H           -4.50624372110251        3.27991400130260        0.48493423164368
H           -5.02368141957631        7.66876880305676       -0.63207888394091
H           -3.27560626390677        7.45494080634413       -0.68019312596831
H           -4.31972783749198        6.34003670970089       -1.55829590536299
H           -6.46785497999486        6.18449584665005        0.64948420892644
H           -5.85787200738684        4.74899750895455        1.46484800810522
H           -5.90692046926202        4.81685688031402       -0.30427870896548
H           -4.23095724096247        6.20646766676869        2.73912368531187
H           -3.20824181639904        7.36379285320133        1.89102987255691
H           -4.95355206299095        7.59610676232401        1.92350949766363
H            6.70071679393778       -2.06588266042031       -1.42458036055440
H            8.03175811011947       -0.28144772638054       -2.37104649973028
H            8.27861931093059        2.04104709335140       -3.15397182682790
H            6.35659171246973        3.58432338724145       -3.04056371436133
H            4.23296066811455        2.84418296482640       -2.05929641714105
H           -6.48748004947505       -2.66496444502219        1.18167460370583
H           -4.28174880557587        2.25338596315852        2.41694602559950
H           -6.39325375316659        2.70788040608786        3.58023858404921
H           -8.22558785789928        1.05580268162149        3.52385741759005
H           -7.88661519443770       -1.10967684926598        2.39914460893169
H           -2.18084598465684       -5.64161065969616       -0.04734106043541
H           -0.87334342693520       -7.16221003782505       -1.46873934279191
H            0.30481406961245       -6.29304499894586       -3.45682952032056
H            0.13224863385631       -3.90046293822785       -4.03452582147654
H           -1.21888414393294       -2.38882460695428       -2.64814012709186
H           -4.88371373299450       -5.02515725365067        1.81750188566135
H           -6.13006090931885       -7.12429738830567        1.46139622349076
H           -6.61531724352862       -7.89611872335776       -0.83294944009464
H           -5.83775545804089       -6.57467664839507       -2.76645571718460
H           -4.56488447226786       -4.49266561348739       -2.40649963899499
H            4.17981462524160       -5.11760057026998       -2.19871788646813
H            5.53065629744143       -7.17677169527086       -2.08171803865727
H            7.08038805786534       -7.53008052320953       -0.19593719107874
H            7.27218688270338       -5.82210356173986        1.57423636281834
H            5.90308830628797       -3.77367958932686        1.46609102167372
H            1.45041126120357       -2.43659196012953        2.17033023961886
H           -0.01712436076507       -3.98840741917470        3.38105705779969
H           -0.30169763325892       -6.30718956459037        2.57582715364247
H            0.92914946954677       -7.06604380028603        0.57728359510773
H            2.34354088252693       -5.50038954616682       -0.67287404042410
H            6.08346978863025        6.61885831662882        0.28378324806397
H            5.61049333662748        5.08760911598104        1.00975210080773
H            5.57427959236566        5.28836654721176       -0.74935208721159
H            4.46120480382982        8.08669387727999       -0.82995094683419
H            2.73882743430700        7.71679240109651       -0.84259886412006
H            3.84758998047737        6.76110587727970       -1.82237625271238
H            3.95039022977467        6.35451585083228        2.45752533138198
H            4.54695124662488        7.83586252675258        1.70374755334225
H            2.82010976016971        7.49297908588404        1.72905468136747
