132
energy: -196.932951949179 gnorm: 0.004477392784 xtb: 6.7.1 (edcfbbe)
C           -1.26716398413158        0.35234783405403       -0.08234929163615
C           -1.18629594785274       -1.04576000400034       -0.24468449840368
C            0.04287766826228       -1.69330342723264       -0.32908035269195
C            1.23228899464189       -0.96836120340586       -0.33189508474759
C            1.21845832724976        0.44747146841461       -0.31793477164694
C           -0.04750311139640        1.04556071618891       -0.16983261746843
N           -0.09933842707153        2.39924145344897       -0.06753986878446
N           -2.38756647489433       -1.73414735430367       -0.22984967265557
N            2.47494671258737       -1.57884089933733       -0.32512793834906
C            0.98033090899623        3.23562019538728       -0.04629757812776
C            0.54242320868095        4.56966200810557        0.09447290124767
C           -0.90909483267530        4.51241532092764        0.11265403969431
C           -1.24159081366541        3.14219800299659        0.05063185006200
C            2.30674791493279        2.82727708060923       -0.13535899307884
C            3.22947410888127        3.86396922569613        0.07500419940407
C            2.85662064504441        5.19273074132603        0.24726547161845
C            1.50232994190083        5.55294206428692        0.22128497018322
C           -1.94256556737755        5.42505383248569        0.17113974892977
C           -3.26883846274199        4.97031325515986        0.14857163833487
C           -3.53687917689485        3.60563987456004        0.14812101003174
C           -2.53018493177693        2.62752028692791        0.14943350931422
C           -4.38387573961618        6.00925061997966        0.14550704081937
C           -4.22305059570263        6.91175783540781       -1.08671834712157
C           -5.78223167115876        5.38661752495361        0.09367972429901
C           -4.28884332056376        6.85321189900956        1.42459785525572
C            2.82376395269177       -2.91236030845499       -0.12086403602575
C            4.18566623024750       -3.05715797157739       -0.16648914718057
C            4.73640835737705       -1.76068762608225       -0.46221559328563
C            3.63410304684844       -0.86491714838151       -0.53718555426705
C           -3.47012612337994       -1.20712810676480        0.43254017874892
C           -4.40574937491586       -2.25312189880453        0.65352590482286
C           -3.85816072386336       -3.42997829613738        0.03459864994268
C           -2.65802057219643       -3.07289685658780       -0.54029474325580
C            6.00652650824493       -1.29183741628594       -0.68533246021897
C            6.18040448794644        0.05305143726823       -1.06726365913848
C            5.05961160472565        0.93178045067008       -1.15879327453638
C            3.75657394183512        0.49830321982806       -0.76686822773144
C            7.46412008244804        0.54441404321809       -1.39276564548707
C            7.63767467713574        1.81673223809687       -1.85793988786548
C            6.52223960421976        2.64275265521291       -2.05670428034578
C            5.26964038811228        2.20866504605030       -1.71751237886669
C           -3.65861301333634        0.11421712255603        0.81000145268393
C           -4.81702691697215        0.35422816980102        1.60790287141466
C           -5.77287307697554       -0.68290119201741        1.84003454452681
C           -5.56629630111694       -1.98219833209642        1.33645712503141
C           -5.02291591324627        1.59504949382306        2.24456320285088
C           -6.13668573348823        1.83578970400044        3.00098856227124
C           -7.11119268220901        0.84077542750879        3.16551894511796
C           -6.92358494877899       -0.39103173090785        2.60733990845827
C           -4.52048860107234       -4.73352452519067        0.09880701742256
C           -1.95136554387024       -3.75959109435343       -1.61559702449807
C           -1.96168216224786       -5.14763366678375       -1.74676659186315
C           -1.41861973839853       -5.75939152977761       -2.86205344664744
C           -0.82100042259900       -5.00779067330407       -3.85758592703365
C           -0.79724176460799       -3.62762929043303       -3.73808541341048
C           -1.36865785013016       -3.00965650906779       -2.64425775074205
C           -3.91690212835394       -5.78722074501952        0.78437035569519
C           -4.55142999410494       -7.01103804698589        0.89175058657463
C           -5.80358355374810       -7.19648429710586        0.32935530370212
C           -6.42133023964641       -6.14754447755624       -0.33108747634596
C           -5.78753320963609       -4.92280153845905       -0.44347119020767
C            4.97697817945618       -4.25343461180554        0.11473459621357
C            4.68154399715824       -5.49671249607314       -0.43806271430900
C            5.45800821669882       -6.60167337891618       -0.14164494635963
C            6.54661896289652       -6.48724314357122        0.70579410645177
C            6.85208032365575       -5.25551595603567        1.25984744515099
C            6.07551962301685       -4.15015455637760        0.96855086579279
C            1.89103157445878       -4.01091599975352        0.18140870232084
C            1.49054463490179       -4.25253711219019        1.49284829654276
C            0.71490511978858       -5.35907034472914        1.79285439125078
C            0.35623591759205       -6.24766332652381        0.79304494801993
C            0.75000090328655       -6.01242351826214       -0.51581492696735
C            1.49920842998157       -4.89280029040986       -0.82462957209525
B            2.48968806629255        1.31219733306376       -0.43715031152430
B           -2.57507652229264        1.08138336244685        0.28234236809717
C            3.88903913430653        6.29519614997832        0.45098214272459
C            5.32750245886790        5.77020911761140        0.48363605100663
C            3.77666245667001        7.29860195214891       -0.70616797421746
C            3.61651238268520        7.00562754490445        1.78439508107300
H            0.06266604076202       -2.76754323669710       -0.37366747175928
H            4.27129246284884        3.59817719404900        0.12363514879356
H            1.20369001888681        6.58466610099751        0.32649703009644
H           -1.72352686211794        6.48083181791677        0.21710844649877
H           -4.55821021392029        3.26350216295317        0.13181292591592
H           -5.02462469377313        7.64697560267346       -1.12116654484532
H           -3.27601816182074        7.44405678206601       -1.07066551870841
H           -4.26284693731680        6.31539879032937       -1.99611658355923
H           -6.52883872694154        6.17867285858470        0.08845178417914
H           -5.96775014208249        4.75756082775611        0.96128741879422
H           -5.91505799332593        4.79527857438360       -0.80917403079688
H           -4.39434066229451        6.21820988194219        2.30187305586499
H           -3.33547232029497        7.37003326993713        1.49163476819760
H           -5.08119820487467        7.59900666237089        1.44114504708589
H            6.86835794098809       -1.93953515015393       -0.61605055807438
H            8.31015831397396       -0.11999841147521       -1.28420963912101
H            8.62459728959582        2.18093582120495       -2.10364237964566
H            6.65823448726793        3.62273430411623       -2.49220134731908
H            4.40968659936795        2.82884185334125       -1.91500596066260
H           -6.30805223764198       -2.74815159047620        1.51192801907464
H           -4.25875184639197        2.34985785854976        2.15284123466574
H           -6.26620387415450        2.79244876725572        3.48709499806540
H           -7.99351689568273        1.04803167981647        3.75358738128324
H           -7.64986159122377       -1.17728782112149        2.75966581009092
H           -2.40689694063603       -5.75696087476593       -0.97909566508540
H           -1.46462196857541       -6.83573667115455       -2.94953112186253
H           -0.38953425274261       -5.48866209642330       -4.72369747109454
H           -0.34520648223292       -3.02558768384940       -4.51270042082720
H           -1.38254061607758       -1.93110068874583       -2.60152318596243
H           -2.95129552043521       -5.63464591219597        1.24870336310763
H           -4.06758075541345       -7.82129099127828        1.41879762958849
H           -6.29874555102682       -8.15280432246882        0.41229687523443
H           -7.40340918498970       -6.28485608773769       -0.76088417759061
H           -6.26994655271290       -4.10843558964130       -0.96488741178858
H            3.84636346535471       -5.60006708120501       -1.11208935287856
H            5.21296226441709       -7.55833900725944       -0.58024493040636
H            7.15315449842036       -7.35155635806699        0.93259866021759
H            7.69807502531093       -5.15548661416042        1.92523503290220
H            6.30639354972525       -3.19774014578827        1.42282851038979
H            1.79330049928269       -3.57252597757686        2.27643060967480
H            0.40948262590666       -5.53843238839431        2.81545385556571
H           -0.22712216723405       -7.12556215770104        1.03101947076604
H            0.48283396712372       -6.70659069508913       -1.29836546776320
H            1.77943771111143       -4.69239705868068       -1.85071179823454
H            6.01130502889328        6.60351679518224        0.63604834867831
H            5.47066742428304        5.06619485044845        1.30020642555766
H            5.59275012719607        5.28531713511177       -0.45273970248415
H            4.52444856774335        8.08178351384137       -0.59885914534186
H            2.79667394523089        7.76704679689893       -0.73262669566236
H            3.93866392319753        6.79413488227543       -1.65662866383236
H            3.68395797497261        6.29733754658298        2.60742869829802
H            4.35014889221205        7.79277813616565        1.94594737811027
H            2.62783718585028        7.45556933827774        1.80334292448223
