132
energy: -196.934800172680 gnorm: 0.003295884816 xtb: 6.7.1 (edcfbbe)
C           -1.25654888431270        0.33307228788591       -0.00968794514268
C           -1.18039569302519       -1.06109380882672       -0.21262623015094
C            0.04667246160600       -1.70488627336874       -0.34471436103240
C            1.23439412395503       -0.97851372065112       -0.34294345715412
C            1.22328521964699        0.43647773025635       -0.31412054257940
C           -0.03881332299796        1.02836900924045       -0.12207753464164
N           -0.08790096307894        2.38100819410154       -0.01204887632120
N           -2.38027848068541       -1.74983243796026       -0.19823045697386
N            2.47653039045067       -1.58705273950400       -0.36331194293800
C            0.99250588148070        3.21841690681351       -0.02891871026321
C            0.55845922196526        4.55169113643464        0.12818438195966
C           -0.89063252391637        4.49233573579040        0.20446107182848
C           -1.22559043504479        3.12264069178451        0.15121082717868
C            2.31603785360560        2.81326406299416       -0.16808289335514
C            3.24360448662648        3.85305143512497        0.00338748511765
C            2.87517778688843        5.18277322079859        0.17992720662095
C            1.51988903926437        5.53870902817070        0.20878320636143
C           -1.92102458045085        5.40580388914677        0.30046724553735
C           -3.24689892054638        4.95155176937031        0.32441638716853
C           -3.51531621657062        3.58660842251000        0.32484287523615
C           -2.51095097068391        2.60662173307667        0.28658015930276
C           -4.36113971187514        5.99107377434358        0.36460294171813
C           -4.25397666140305        6.88581603045331       -0.87868678577095
C           -5.76064262694061        5.36870043537169        0.37763136776987
C           -4.21091401454015        6.84200945607455        1.63387632702802
C            2.83007791849508       -2.91953000039202       -0.15286544357592
C            4.18406075862562       -3.07190471481839       -0.28973881871119
C            4.71918042581850       -1.78134624120335       -0.63349329363154
C            3.62147409480695       -0.87871099103977       -0.64672065076670
C           -3.46632827212411       -1.23005601523011        0.46263822661391
C           -4.41720212680437       -2.27130316383600        0.63476995550022
C           -3.87251053785670       -3.43559514531559       -0.00405303540145
C           -2.65659918501177       -3.07949978783210       -0.53403681885809
C            5.97846167460692       -1.32708480625449       -0.93273961959780
C            6.13849052286575        0.01689522713980       -1.32338434775112
C            5.02315004900160        0.90825533821148       -1.33734862069689
C            3.73907942154329        0.48483576544322       -0.87819898239282
C            7.40347261980942        0.49172489540437       -1.73429661647663
C            7.56436528100249        1.76517850753814       -2.19966844527792
C            6.45091837828393        2.61193157640382       -2.30505307033982
C            5.21812728989054        2.19125890576899       -1.88736478282251
C           -3.65271673512699        0.07978432934872        0.88034305278468
C           -4.82811409481641        0.30095103402200        1.65983474863658
C           -5.80166137605469       -0.73175464570304        1.83199665025509
C           -5.59374506304068       -2.01655280673717        1.29405303216185
C           -5.04050223870719        1.51947800140482        2.33648202271304
C           -6.17377136324039        1.74564500303729        3.06799046327887
C           -7.16413703990641        0.75700342571335        3.16926267902063
C           -6.97153506519558       -0.45649115220322        2.57425506404909
C           -4.57268434455724       -4.72378968640880       -0.03035968077201
C           -1.90802615421863       -3.79459279094858       -1.56078810987031
C           -1.83338384755647       -5.18644642141711       -1.58462614440716
C           -1.21364504607011       -5.83996520602997       -2.63381717522394
C           -0.64224641420608       -5.12183006934812       -3.66952851374000
C           -0.71929563551072       -3.73795899819538       -3.66268893239227
C           -1.35600002154750       -3.08054512731601       -2.62941993691779
C           -4.12949806726595       -5.77579607966575        0.76694720719149
C           -4.81715277016724       -6.97507582642900        0.78783649306818
C           -5.96052681768382       -7.13518038395654        0.02199421179428
C           -6.41795078758801       -6.08681641814514       -0.75802122493560
C           -5.73187974643496       -4.88549578293435       -0.78078755497626
C            5.00727523628628       -4.24929938772758       -0.02085393605999
C            4.77896025084869       -5.48322878908482       -0.62150260495740
C            5.59274995141726       -6.56421337088160       -0.33616081502366
C            6.64977284370757       -6.43047828251874        0.54727021591875
C            6.89087039272333       -5.20436124506348        1.14482368428907
C            6.07886307658398       -4.12307729192738        0.86262311362697
C            1.89662616620436       -3.94796624451559        0.32695070438945
C            1.42066402984664       -3.88017000344047        1.63433369520520
C            0.59012200758752       -4.86957992799590        2.12587540144505
C            0.24341104916366       -5.94717376958080        1.32633051137814
C            0.71115074755756       -6.01839403050358        0.02663433149574
C            1.52222951858546       -5.01901527821235       -0.47798518347483
B            2.49095271292717        1.29933121198915       -0.48013585287327
B           -2.55819265867447        1.05672107075020        0.39074034631576
C            3.91374851652994        6.28854434164329        0.32928554684039
C            5.35284280138618        5.76397734832802        0.32073134925456
C            3.76197476707636        7.27320263800336       -0.83924670627139
C            3.68737637184473        7.02019643345902        1.66035705604838
H            0.07109625016906       -2.77622459569779       -0.43431178456802
H            4.28680177656769        3.58852696155178        0.01627616929452
H            1.22225431989635        6.57050000547256        0.31926148738363
H           -1.69967300445996        6.46147765986348        0.33905929961068
H           -4.53736429296273        3.24705178051620        0.33786843874689
H           -5.05543361409072        7.62183144935131       -0.88188539551080
H           -3.30646941976458        7.41645528475566       -0.90854470388530
H           -4.33521375846874        6.28372637355285       -1.78145785493505
H           -6.50641083667125        6.16132225304731        0.39726520507878
H           -5.90860564571291        4.74671634005931        1.25724219406224
H           -5.93245149440610        4.76986523140493       -0.51406629734193
H           -4.26598413272944        6.20972418688914        2.51793574151923
H           -3.26087812611812        7.36918782696187        1.65183195282328
H           -5.00879744908313        7.57980646657734        1.68709250956925
H            6.83411052930699       -1.98613228623916       -0.90890169097582
H            8.24327070549115       -0.18802953052650       -1.69200977772538
H            8.53609075154710        2.11554477661597       -2.51581693855774
H            6.57382258304992        3.59712197153896       -2.73188929688084
H            4.35700707417693        2.82781638971226       -2.01525630720434
H           -6.34227064743264       -2.78537263649057        1.42292265323784
H           -4.26574640355349        2.26805199341929        2.29642926037572
H           -6.30911735940174        2.68575414204696        3.58399287966551
H           -8.06099906269021        0.95348205827784        3.73803340492007
H           -7.70816846830053       -1.24182353383607        2.67563044700142
H           -2.26162572005131       -5.75924597960940       -0.77916556955586
H           -1.17761004242642       -6.92010135607526       -2.64234496574564
H           -0.14737858597524       -5.63521873100918       -4.48065577211254
H           -0.29242305899484       -3.16830697700719       -4.47539886665942
H           -1.43921471989095       -2.00330819793077       -2.65600704840358
H           -3.24902899834463       -5.64016481493662        1.38104540370399
H           -4.46396382039405       -7.78640202423099        1.40816702315161
H           -6.49670879573238       -8.07254166299652        0.03827505798714
H           -7.31544526331809       -6.20463996616883       -1.34838416378093
H           -6.08755140824225       -4.06541536916281       -1.38757555666494
H            3.97340366144001       -5.59338849604225       -1.32971336897061
H            5.40370110860636       -7.51593010292230       -0.81154990055039
H            7.28493549770143       -7.27613221210896        0.76664546016530
H            7.71459708854214       -5.09177009034487        1.83497996212184
H            6.25998771614739       -3.17069672012197        1.33978323468162
H            1.70428204109955       -3.04577829685001        2.25822934819404
H            0.22200928508630       -4.80642514364809        3.14014441692902
H           -0.39571856386422       -6.72757262044378        1.71338590844858
H            0.44429403355629       -6.85616149600715       -0.59956779553088
H            1.84392478763402       -5.05323144718366       -1.50915224913845
H            6.04097345350700        6.59913108586206        0.43731791269312
H            5.52361989794469        5.07221202680038        1.14254470441649
H            5.58669565338212        5.26521317164572       -0.61663376171511
H            4.50719695910846        8.06256606189270       -0.76416612386148
H            2.77808870661887        7.73442212759715       -0.84649927090840
H            3.90214732581202        6.75564501369805       -1.78644766742479
H            3.76811066786937        6.32069842140026        2.49036084478786
H            4.43563260343552        7.79952900878677        1.79212218560108
H            2.70562229033051        7.48368307803020        1.70086243037024
