132
energy: -196.934882003861 gnorm: 0.001328265264 xtb: 6.7.1 (edcfbbe)
C           -1.25750914073455        0.33454021796767       -0.00826778839406
C           -1.18082541451888       -1.05962749059164       -0.20860377927464
C            0.04608470343095       -1.70325556663611       -0.33939075790950
C            1.23377403866062       -0.97731583407259       -0.33984737567781
C            1.22207223948427        0.43725223667071       -0.31254638029142
C           -0.03994146000122        1.03008306828904       -0.12058552035904
N           -0.08894469512612        2.38266643088276       -0.01064620086159
N           -2.37951287462249       -1.75028997256251       -0.19431334093395
N            2.47522656187867       -1.58648854600005       -0.36206384707923
C            0.99154502735902        3.21916698723098       -0.02951607565609
C            0.55805301286739        4.55261747155228        0.12781622687766
C           -0.89124439489041        4.49380021301207        0.20587734692233
C           -1.22610223929738        3.12406699279975        0.15329390592131
C            2.31459453156131        2.81383579813533       -0.17286626494675
C            3.24297160624882        3.85313362009222       -0.00438752015149
C            2.87514562591808        5.18232885882338        0.17554144253569
C            1.52019288419496        5.53909867786161        0.20734847297381
C           -1.92126679714313        5.40714707064210        0.30365471382899
C           -3.24682317811444        4.95233908024149        0.32787018630229
C           -3.51562497227317        3.58742521114233        0.32588839024059
C           -2.51140726118202        2.60765356918105        0.28731515609936
C           -4.36074123757563        5.99152969661572        0.37163984786988
C           -4.25472041318907        6.88926278430598       -0.86978713558165
C           -5.76009495990492        5.36932847538280        0.38555503029627
C           -4.20784600987434        6.83967617939553        1.64238698885560
C            2.82666160284026       -2.91932804109248       -0.15102729260329
C            4.18019935365151       -3.07326791241813       -0.29286251676724
C            4.71633204380375       -1.78356510657356       -0.64036724075373
C            3.61941686220625       -0.87996806593674       -0.65112886999515
C           -3.46801713327472       -1.22982975666482        0.46286736907851
C           -4.42009633384137       -2.27083833257519        0.63232850996409
C           -3.87268467968240       -3.43533498806956       -0.00584036463893
C           -2.65429889293717       -3.08015756899869       -0.53169725063324
C            5.97528911049911       -1.32893701712027       -0.94108879049086
C            6.13558366203896        0.01487099140514       -1.33173661467241
C            5.02002873842092        0.90614947989710       -1.34640283385176
C            3.73665342994865        0.48365903263119       -0.88384858777775
C            7.40050633117514        0.49272971082040       -1.74059937637119
C            7.55979598941931        1.76670681424777       -2.20498437680883
C            6.44564517388971        2.61138049088828       -2.31421852043231
C            5.21267354304281        2.18881978252078       -1.89880001658042
C           -3.65379012312481        0.08051891599489        0.88021603274545
C           -4.82902222368747        0.30168199509726        1.66005656302366
C           -5.80307308543203       -0.73046416905328        1.83169486011259
C           -5.59687472825463       -2.01409042116999        1.29085458396754
C           -5.03889997949749        1.52024110091640        2.33751208551971
C           -6.17155211843846        1.74799766167302        3.06928076551810
C           -7.16292623739752        0.76091197390850        3.17015309993855
C           -6.97207804131077       -0.45282878285681        2.57564198759151
C           -4.57300234012249       -4.72293730187035       -0.03718369926476
C           -1.90240023711177       -3.79502528759057       -1.55655352875823
C           -1.82442500188858       -5.18571407019373       -1.57859229716167
C           -1.20592160092044       -5.83866151570944       -2.62856391876023
C           -0.63647192959767       -5.12113201831540       -3.66548613919487
C           -0.71224497811247       -3.73805582672838       -3.65798479898543
C           -1.34854756440821       -3.08164196893809       -2.62462306298540
C           -4.13216265313664       -5.77769738237744        0.75851024609872
C           -4.81973706927016       -6.97681503148618        0.77484328855764
C           -5.95958097229961       -7.13402535708001        0.00421525273247
C           -6.41327913499501       -6.08441497734789       -0.77641975533208
C           -5.72777760598256       -4.88314378657612       -0.79415929580147
C            5.00279602026604       -4.25229196616623       -0.02536422607552
C            4.77164895464228       -5.48572946155302       -0.62521680562540
C            5.58383647323020       -6.56815877497541       -0.34064813385150
C            6.64204284797081       -6.43612908012202        0.54168947518917
C            6.88634538355015       -5.21047569418791        1.13865975362655
C            6.07590388368467       -4.12787426587162        0.85693311820087
C            1.89384778957858       -3.94579880571910        0.33430371816133
C            1.42594036075248       -3.87638248816654        1.64493962363502
C            0.60030444249099       -4.86502945414559        2.14445113909608
C            0.25265574289426       -5.94615369365616        1.35201288426510
C            0.71565084270252       -6.02330039957423        0.05042765280188
C            1.51947308189440       -5.02176797457096       -0.46284884985312
B            2.48942934677457        1.29964022175679       -0.48312130073152
B           -2.55940018651687        1.05780348281590        0.39079841512881
C            3.91356758904303        6.28788803912616        0.32514628450970
C            5.35262155142585        5.76361701962220        0.31406464320866
C            3.75937564164880        7.27336939628542       -0.84231453317004
C            3.68840687608879        7.01752823930572        1.65704833732734
H            0.06957721850325       -2.77459563379832       -0.42620810814534
H            4.28630697988446        3.58915858724095        0.00335233886637
H            1.22335473182537        6.57077298869969        0.31841112039710
H           -1.69961460381157        6.46271267303468        0.34295935977029
H           -4.53771940069809        3.24839722441789        0.33740316890548
H           -5.05564620232175        7.62584723041621       -0.87065834049278
H           -3.30677615818165        7.41947020644665       -0.89891875658520
H           -4.33683198911046        6.28935325729461       -1.77399178588158
H           -6.50602159793553        6.16158562904382        0.40978648387128
H           -5.90593379288445        4.74451751053463        1.26366691099263
H           -5.93405856088432        4.77340226082184       -0.50725052329670
H           -4.26273706493790        6.20598984106385        2.52525720693696
H           -3.25706223715591        7.36506220086191        1.65971286725943
H           -5.00450327934857        7.57883037717813        1.69794643342582
H            6.83108303181007       -1.98790698989114       -0.91718390433859
H            8.24167803751826       -0.18518418711191       -1.69718760793515
H            8.53175042525173        2.11963954933430       -2.51744313541375
H            6.56760030312749        3.59619394196855       -2.74268135511173
H            4.35007628699922        2.82249506010539       -2.02883272809222
H           -6.34733585478825       -2.78124202082137        1.41668032421313
H           -4.26212485589465        2.26641213149929        2.29695778624479
H           -6.30511342387911        2.68789864803923        3.58569831392385
H           -8.06005875307109        0.95901003729615        3.73854143010307
H           -7.70959855231577       -1.23657079438656        2.67896187776382
H           -2.25226806495617       -5.75824711591464       -0.77292793090569
H           -1.16918125690976       -6.91825982361361       -2.63644783933138
H           -0.14628701775934       -5.63414278945961       -4.47944618022922
H           -0.28420053738716       -3.16800161703173       -4.46970073232158
H           -1.43219649359946       -2.00556908431484       -2.65153937866320
H           -3.25403286595373       -5.64349102101648        1.37564034629081
H           -4.46897840143410       -7.79020909500871        1.39390157413444
H           -6.49659378019529       -8.07091223493098        0.01820085190446
H           -7.30693964190183       -6.20160633855903       -1.37195438366524
H           -6.08034289109941       -4.06197112394951       -1.40156162520313
H            3.96473257035952       -5.59419087839626       -1.33162809151926
H            5.39257576686270       -7.51972133405613       -0.81548760953468
H            7.27573460164070       -7.28281286080405        0.76099857476515
H            7.71125935385210       -5.09942389178869        1.82782850692304
H            6.25886305750585       -3.17564263227448        1.33400039030678
H            1.71274940719246       -3.03987753382157        2.26638800821442
H            0.23594828813442       -4.79771188993679        3.15870223690014
H           -0.37774640604411       -6.72851216190360        1.74850835994481
H            0.45032507720242       -6.86546334873600       -0.56937452826044
H            1.83441887388682       -5.05806826227297       -1.49500703573258
H            6.04073114914460        6.59879188923055        0.43108395394978
H            5.52461198675164        5.07061314076851        1.13434052526033
H            5.58557138433794        5.26654080894626       -0.62447559336372
H            4.50458879715507        8.06266313734153       -0.76887358110584
H            2.77572442107326        7.73463573369979       -0.84655906142183
H            3.89676254422740        6.75617862677725       -1.78971536279998
H            3.77074749248427        6.31753908721113        2.48596117259010
H            4.43556530880556        7.79744563614045        1.78857477646823
H            2.70624358745764        7.47995441452865        1.69895786486013
