132
energy: -196.922804949229 gnorm: 0.010481783161 xtb: 6.7.1 (edcfbbe)
C           -1.32262972177190        0.34764343381664       -0.24889470361713
C           -1.24280721476428       -1.05206196860393       -0.31272354898829
C           -0.02040272993952       -1.71910458022840       -0.24790712702742
C            1.17881180628629       -1.01001447363401       -0.30521174886781
C            1.16246025867816        0.40385674907839       -0.39120592753502
C           -0.09693479654594        1.02414409984871       -0.31425723631405
N           -0.14183584895630        2.37792157089931       -0.24117191312245
N           -2.45849070811355       -1.71404809821844       -0.33723881758293
N            2.43050063925825       -1.61175734679541       -0.24646991627134
C            0.94138102801678        3.19916363859712       -0.14229739848823
C            0.50975275719205        4.52918721582799        0.02341866890014
C           -0.93351391269919        4.48769181826778       -0.02527589811285
C           -1.28043627680467        3.12781751305549       -0.15091332311881
C            2.26149032670040        2.77677245435251       -0.17252113743164
C            3.18898334562266        3.78758858629663        0.11535946841769
C            2.81309263662492        5.11012821035477        0.30993917869996
C            1.46907610829233        5.49240584289933        0.23573938220469
C           -1.95184676294378        5.41074176987041        0.04100562473925
C           -3.27818710823593        4.97225997630846       -0.03840124616613
C           -3.57278816198914        3.61621840337874       -0.09409695831834
C           -2.57632282031595        2.63071013181222       -0.09338602620563
C           -4.36077884633779        6.03838090924559       -0.02001433017675
C           -4.12828953385521        6.97464673836444       -1.21341857437067
C           -5.76855195832660        5.45098195435780       -0.12845282317655
C           -4.25092914495012        6.80321165414461        1.30576340943819
C            2.80414151273217       -2.92283488303534        0.05453188725974
C            4.17328673555868       -3.01229597818569        0.12472556185332
C            4.70927411299192       -1.72739171373731       -0.21140084506757
C            3.58972780802171       -0.88044798498295       -0.41618068733324
C           -3.52621771106022       -1.16809895288530        0.33099695586788
C           -4.46111807014689       -2.20022529315552        0.59940390978165
C           -3.93901691549525       -3.38441097928298       -0.03001437019654
C           -2.75465617446766       -3.04224057136910       -0.66139351220699
C            5.98301762990496       -1.24799232347515       -0.40242375398913
C            6.15445573281536        0.06797470791721       -0.86803656407757
C            5.02303388523312        0.91202271731086       -1.06152640259977
C            3.71382319572785        0.46674321238399       -0.72012503980402
C            7.43939890133752        0.57091854294583       -1.17655398414107
C            7.59961643967053        1.81874534258973       -1.70517416444187
C            6.47685075261099        2.61417002631498       -1.98189862525816
C            5.22261040129587        2.16900029054903       -1.67005283864265
C           -3.69923143765077        0.16325299799182        0.67407913361556
C           -4.82574087089706        0.43955272932747        1.50031544181916
C           -5.77409957419814       -0.58592766724940        1.79847652662621
C           -5.58910725186465       -1.90112230170360        1.32827491148905
C           -4.99822484848615        1.70437569559831        2.10034886783319
C           -6.08520707112633        1.97969077573430        2.88153486056988
C           -7.06166379004442        0.99715661534876        3.10615861785242
C           -6.89946289810295       -0.25579084604098        2.58993709179832
C           -4.54015362685221       -4.69268262085595        0.17230724923166
C           -2.11848948514640       -3.69865037603801       -1.79979824390307
C           -2.47038325779115       -5.00096585741442       -2.17389558402965
C           -1.93742739719336       -5.59417709757882       -3.30137074954276
C           -1.02551185854046       -4.91300609447297       -4.09032714843712
C           -0.70542857039644       -3.60613183449472       -3.76851734498166
C           -1.25833445730180       -2.99965841600069       -2.65635689355285
C           -3.74528408784647       -5.74460270275285        0.63276918555765
C           -4.31075457001749       -6.97519654720972        0.89833375024643
C           -5.67490696894344       -7.15787399555293        0.73566601507736
C           -6.47404042413146       -6.11193251399907        0.30549167542886
C           -5.91017887575704       -4.88310337470352        0.01762443202019
C            5.00019639946770       -4.18127214296240        0.38756934334858
C            4.73891037630519       -5.40645064824451       -0.21925490496832
C            5.57976104293374       -6.47963615954934       -0.00005621267318
C            6.69890187359139       -6.33418247743998        0.80285769085396
C            6.96872466810745       -5.11794229943446        1.40742707902172
C            6.11624568301156       -4.04915537229571        1.21272802482490
C            1.96261934918470       -4.10950213378952        0.22898084452195
C            2.13987891022638       -4.88402962452505        1.37694620924589
C            1.51345986554203       -6.10881561096592        1.49840456530065
C            0.68461714268620       -6.56561340656900        0.48640384785521
C            0.50050095297189       -5.80542055219913       -0.65601301769693
C            1.15022759490034       -4.59253763988028       -0.79499050659094
B            2.43236808330821        1.26841301498376       -0.48062259165316
B           -2.62956880103843        1.09501382072325        0.07110287210469
C            3.82889436916229        6.20594103891290        0.58780971989161
C            5.26466862077795        5.68153545242185        0.64042952527067
C            3.72659660601538        7.23359732957888       -0.54736889031995
C            3.49351161881826        6.84800081042938        1.94035623343236
H           -0.03311272018900       -2.78953998216917       -0.14459232627381
H            4.22368549334785        3.50628826317374        0.20620783114280
H            1.17593675427418        6.52153971694029        0.37164970939026
H           -1.71854391706801        6.45877136954505        0.14394780458499
H           -4.59747490885824        3.28839876167257       -0.14346284099404
H           -4.90088722525510        7.73787555129587       -1.26244591010378
H           -3.16412737892487        7.47037516997445       -1.14506774463756
H           -4.14655944702808        6.40133074210343       -2.13855434802453
H           -6.50233443191868        6.25397574278852       -0.12003311955247
H           -5.98054788694662        4.79036136487607        0.70911550023593
H           -5.88552573758425        4.89612828271291       -1.05658460351554
H           -4.35240607995632        6.10953071528075        2.13848840762628
H           -3.28893803220013        7.29936592586518        1.39753686812130
H           -5.03105547338915        7.55628325302873        1.38314623914014
H            6.84610261728153       -1.87784782215248       -0.24435664219741
H            8.29326631289962       -0.06894390912003       -1.00094458150760
H            8.58593091089688        2.19208075279150       -1.94050562789781
H            6.61280572218857        3.57663950012351       -2.45486367765014
H            4.35206940295275        2.75506379321283       -1.91865975419017
H           -6.32350783388847       -2.65675745267988        1.56697593451409
H           -4.22770408617820        2.44425122362911        1.95510372146925
H           -6.19477628678435        2.95215126045018        3.34094899056277
H           -7.92639645737765        1.23542239763927        3.70874345228783
H           -7.62749537664879       -1.03006617550558        2.79031994528703
H           -3.17974874745935       -5.55201333392330       -1.58211505837537
H           -2.23743514543116       -6.59943544816369       -3.56226028852798
H           -0.58549931184740       -5.38857945813137       -4.95429543389545
H           -0.02210468054017       -3.04704622983563       -4.39215933584185
H           -1.02222692924099       -1.96544650110455       -2.46824630044230
H           -2.68749895966134       -5.57319863315155        0.77825135939657
H           -3.68924351699557       -7.79130082108512        1.23745232436216
H           -6.11650026965293       -8.12046265890311        0.94800112331305
H           -7.53885637853479       -6.25478826563567        0.19328016482440
H           -6.51326752943678       -4.06515292590059       -0.34713261054625
H            3.88476053714363       -5.50003796894494       -0.87190613357272
H            5.36800137987551       -7.42961866359283       -0.46856220664396
H            7.36500883833925       -7.17060274216836        0.95536061707512
H            7.84582269039874       -5.00119580046990        2.02757524702916
H            6.29488459752409       -3.10345029563161        1.70317785243695
H            2.79159059919327       -4.51948581297250        2.15776597403097
H            1.68446085722129       -6.71599628394561        2.37559042527388
H            0.19383809003393       -7.52355600303489        0.57897853071992
H           -0.13468304022783       -6.16377334081623       -1.45128526781848
H            1.04947722314388       -4.02746741554972       -1.71058051176377
H            5.94857338299578        6.50640788133037        0.82827567143294
H            5.38445991098086        4.95502926840753        1.44097285181115
H            5.54432404370056        5.21744338842431       -0.30231006941854
H            4.46396030183281        8.02255548807582       -0.42351269224013
H            2.74149339197517        7.69016774099324       -0.57906916223848
H            3.89979428668498        6.74095913216830       -1.50242597542904
H            3.51448021488478        6.09078339349802        2.72213198483276
H            4.21464992675866        7.62297484388565        2.18836480359102
H            2.50326567215804        7.29463669037262        1.93226265780691
