132
energy: -196.938503197856 gnorm: 0.007866602771 xtb: 6.7.1 (edcfbbe)
C           -1.23953895934856        0.34124567651352        0.13409345331503
C           -1.16838934163270       -1.05368589584212       -0.07512996327944
C            0.05755510251276       -1.69581968021653       -0.21439554682403
C            1.24317643092679       -0.96754835641997       -0.21823572113826
C            1.23516516256999        0.44496758479334       -0.19978758437089
C           -0.02227923119521        1.03672025751516        0.01463988796882
N           -0.06250640308297        2.38888447011801        0.12768151893632
N           -2.36958372697454       -1.73998834294483       -0.08208794963108
N            2.48332440711586       -1.57480537486712       -0.26977866753822
C            1.02100635953193        3.22121803304596        0.07923338080041
C            0.59484663745276        4.55556754935101        0.25074420099011
C           -0.85177835883771        4.50219098800071        0.36599002070768
C           -1.19338719111731        3.13458282823589        0.31094800297739
C            2.33752159796286        2.81668551837088       -0.12177366197869
C            3.27187904282563        3.85881952212774       -0.00645027234100
C            2.91081618514311        5.18817553140487        0.18845154378574
C            1.55843559297486        5.54210402673991        0.28787272505984
C           -1.87604145895861        5.41914108411007        0.48976458314842
C           -3.20319777261892        4.96959716412716        0.52472017991227
C           -3.47881169216591        3.60660993765697        0.49885495547750
C           -2.47994124691131        2.62201923498133        0.44469302642810
C           -4.31315035172862        6.01091215243302        0.60561450305926
C           -4.23094293721460        6.92524549923167       -0.62504078903639
C           -5.71372707238870        5.39200214191114        0.64199221800785
C           -4.13087166124464        6.83946054047878        1.88584081134950
C            2.83885525721331       -2.91084753901657       -0.07305757142928
C            4.14676470486314       -3.09374677490279       -0.43441856135447
C            4.65607709372872       -1.81808681618269       -0.85572833226442
C            3.58876695442575       -0.88985886290299       -0.71006369002667
C           -3.48575305742613       -1.20326494830202        0.51691955270255
C           -4.48078145666966       -2.21604529161060        0.59933510530379
C           -3.92625484447857       -3.37768077780741       -0.03411234533176
C           -2.65906328430640       -3.05522430047638       -0.44526727146162
C            5.87592999194901       -1.38149177808527       -1.30891275372907
C            6.01198234899283       -0.03313919285701       -1.69393919775056
C            4.92125691378263        0.87948081916863       -1.55791445659799
C            3.69553509478648        0.47301353913698       -0.95065937539932
C            7.22638594732386        0.43247900950647       -2.24650753409788
C            7.35288411322640        1.71244685780884       -2.70439685400504
C            6.25201832003137        2.58081582852465       -2.65857572408673
C            5.07204659248081        2.17156571459136       -2.10165481313224
C           -3.66479374746349        0.10259949192274        0.95004218916915
C           -4.88017548787860        0.34191604138435        1.65851350972043
C           -5.90528054975248       -0.65135682279253        1.71682298487987
C           -5.70162647474268       -1.92788057953501        1.15782436281378
C           -5.08628286957487        1.54211858347873        2.36947191024276
C           -6.26676843527666        1.80229731497211        3.00815747348736
C           -7.31050213139665        0.86552091197836        2.97748949260529
C           -7.12288839313811       -0.33875231635785        2.36226458407120
C           -4.64668313546187       -4.63331510199880       -0.26535020370158
C           -1.80471000667777       -3.91293239303267       -1.26086561010894
C           -1.70475920529459       -5.27158940090136       -0.96836377627132
C           -0.97130849449055       -6.11125150537140       -1.78428848560187
C           -0.31867225049769       -5.60883680080784       -2.89674001822148
C           -0.41455694319500       -4.25998666336961       -3.19705402029711
C           -1.15896976357949       -3.41798012872379       -2.39460612680352
C           -4.97430981333233       -5.46139064083237        0.80764756361215
C           -5.66779890194332       -6.63825415305195        0.59281540689378
C           -6.06419262455365       -6.98780289387793       -0.68645954170259
C           -5.75252442916912       -6.16075927031366       -1.75750799296429
C           -5.04070645076840       -4.99448619897134       -1.54912502289641
C            4.95497705741792       -4.31589352845258       -0.33859015425593
C            4.84337668198162       -5.33162302805799       -1.28164013473862
C            5.62188346156618       -6.47021378633095       -1.17739175135527
C            6.52769921585614       -6.60121433892325       -0.13836479508262
C            6.65980011385981       -5.58447234700992        0.79256563995560
C            5.88064828667239       -4.44645045227280        0.69170150388845
C            1.97547150276862       -3.85783158768857        0.63028895363775
C            1.34237929439003       -3.45787146135738        1.81080184930239
C            0.52355946293930       -4.33012073669668        2.49852902022682
C            0.34001830325668       -5.62322636007193        2.03514300730279
C            0.99291025956516       -6.03913876337487        0.88793628929630
C            1.80076342589358       -5.16396183682857        0.18460169633687
B            2.49536579192883        1.30116616692945       -0.43822021207728
B           -2.53951600602859        1.07108395793465        0.52357095242333
C            3.94823964733143        6.30166323969448        0.27503820995657
C            5.38868385946776        5.78798441578149        0.19033632218130
C            3.72396865718960        7.27738865618989       -0.88986355826675
C            3.78885753622567        7.04095485745323        1.61157220112522
H            0.08866235502471       -2.76623525850716       -0.30989559707350
H            4.31526816007342        3.59747662833120       -0.05731419041558
H            1.26542368236107        6.57341962516564        0.41198197904515
H           -1.64945483885408        6.47323544354668        0.53925113210786
H           -4.50254242478956        3.27322217921797        0.50429619523597
H           -5.02386157280289        7.66983200120195       -0.59435195911513
H           -3.27830488462868        7.44534663751870       -0.67223652649415
H           -4.34360907074819        6.33863883867392       -1.53473431705068
H           -6.45603032627488        6.18554572407279        0.70258006110906
H           -5.83852493126299        4.74832047539377        1.50948061365717
H           -5.91297678762157        4.81579381512505       -0.25852509596637
H           -4.16662752213480        6.19131837071958        2.75960879865794
H           -3.17946606779979        7.36416192445919        1.89059146066846
H           -4.92573130937839        7.57773510876598        1.97105695555443
H            6.71426004314784       -2.05694355983622       -1.39841794232224
H            8.05422088206966       -0.25923998728924       -2.31752159239739
H            8.28619180227092        2.05478639782141       -3.12751565642373
H            6.34129569672492        3.57282618279755       -3.07870940527634
H            4.21393986357402        2.82441318438650       -2.10561387528869
H           -6.48835814438333       -2.66785863067624        1.19356223827435
H           -4.27005552501041        2.24333389034946        2.42925505941460
H           -6.40057944503797        2.72746552345918        3.55077415770461
H           -8.24682438392641        1.09307210940585        3.46558466981469
H           -7.90292643850847       -1.08709469769921        2.37134847641461
H           -2.19798530221669       -5.66332571451032       -0.09231316388115
H           -0.90962258272150       -7.16344146902709       -1.54790658138818
H            0.25936001226123       -6.26636473638341       -3.53022048858734
H            0.08512192844984       -3.86395922484128       -4.06936924168302
H           -1.24682929335223       -2.37075901190679       -2.64709265505721
H           -4.66131951860884       -5.18699929162070        1.80247741144935
H           -5.90170742342206       -7.28601573939671        1.42970103146700
H           -6.61286288144911       -7.90337233133840       -0.85092945748152
H           -6.06870984033058       -6.42489250198734       -2.75721192534751
H           -4.79214702661509       -4.34766152158502       -2.38241949511135
H            4.15343327673075       -5.21786754699912       -2.10669360202015
H            5.52505241461912       -7.25703146361432       -1.91216649416391
H            7.13434770997247       -7.49143856516809       -0.05596427341882
H            7.37298007201172       -5.67944954748279        1.59892991865468
H            5.97875631950462       -3.65057420535487        1.41643095814848
H            1.49454759507049       -2.45501731696531        2.18428719851592
H            0.02793532769608       -3.99948161189990        3.40060867382433
H           -0.30438910689029       -6.30484481591313        2.56949302332794
H            0.86672136035145       -7.05040163516862        0.53195290742163
H            2.28471451393710       -5.49085929974085       -0.72167007950447
H            6.07472185633905        6.63045557487231        0.25831426193449
H            5.61117843289255        5.10705213831467        1.00906832238343
H            5.57324914957273        5.28038016356692       -0.75337681260074
H            4.45266458134810        8.08528994574768       -0.85014557160747
H            2.73009836913833        7.71545277694050       -0.85688643067898
H            3.83558407551760        6.75856548506850       -1.84011895990930
H            3.91539624167873        6.34775783112046        2.44118518798344
H            4.53968416203163        7.82393969220745        1.69880474816920
H            2.80893051682691        7.50177389846546        1.70019119683380
