132
energy: -196.936548376589 gnorm: 0.005361831705 xtb: 6.7.1 (edcfbbe)
C           -1.26192258592088        0.34291494710862        0.12917431773609
C           -1.18887261817307       -1.05308793488630       -0.06631153244545
C            0.03437333577644       -1.70274665999447       -0.19281091131163
C            1.21970664300967       -0.97699376472237       -0.23029420695096
C            1.21021021148475        0.43619892125715       -0.23603544560402
C           -0.04421333732689        1.03405725974007       -0.01250754326006
N           -0.08477839598496        2.38746232821949        0.08098357853963
N           -2.38750489152231       -1.73893178920504       -0.07701372511273
N            2.45649301783863       -1.58887872878154       -0.28912431925228
C            0.99882317172406        3.21794500186477        0.00832634968196
C            0.57888513986431        4.55478461112963        0.17477147233547
C           -0.86679666001098        4.50305485160511        0.31784577255536
C           -1.21198528170768        3.13483664415216        0.28070622889111
C            2.31172768012091        2.80587090256644       -0.20015778264889
C            3.25136065445587        3.84309821204944       -0.09632945196927
C            2.89893140185239        5.17492303886675        0.09272093789610
C            1.54866606723446        5.53753879643892        0.19535759325701
C           -1.88606435535640        5.42206926625074        0.46486582443477
C           -3.21246391271792        4.97479532652404        0.53867816589562
C           -3.49097517560455        3.61189503182575        0.52453563141328
C           -2.49658769249540        2.62398948135307        0.44716115031326
C           -4.31712761671155        6.01847441769313        0.65686258928808
C           -4.26332340475768        6.95118003714166       -0.56147394665374
C           -5.71879621833776        5.40382487510788        0.71782628253187
C           -4.10126049791304        6.82902803599920        1.94306555776287
C            2.80608333748054       -2.92408206372624       -0.08151810682824
C            4.12625822557826       -3.10639564681872       -0.39776522717866
C            4.64277139971802       -1.83230608475246       -0.81845087025816
C            3.56988885546337       -0.90627824622912       -0.71517271358423
C           -3.50811036068672       -1.20620167236050        0.51207275351970
C           -4.49863092001825       -2.22469061724727        0.57919997035976
C           -3.93285487379415       -3.38372308294274       -0.04948651810264
C           -2.66555692488039       -3.05404412435427       -0.45076448268312
C            5.87415579532081       -1.40203933043744       -1.24509884825925
C            6.01891031616392       -0.06009894356655       -1.64600187772759
C            4.92174832240585        0.85158349621639       -1.55678682207651
C            3.67988134701859        0.45305907515215       -0.97490965278979
C            7.25001747533288        0.39784905279569       -2.16669550087606
C            7.39022181251038        1.67137147287448       -2.63684286671680
C            6.28610762909039        2.53681292421077       -2.64135132465146
C            5.08812007248398        2.13353654628314       -2.11970434485239
C           -3.68929534045512        0.09823915719289        0.95180600666765
C           -4.90728381005328        0.32239874722585        1.66375718310859
C           -5.92425520482710       -0.68112054384025        1.71903632189515
C           -5.71895106927507       -1.94937011727916        1.14361866484829
C           -5.12179938175445        1.51221843736633        2.38956743905692
C           -6.29627320106996        1.74779776748391        3.04985195656252
C           -7.32822085349562        0.79750420717868        3.02564810285143
C           -7.13603849079098       -0.39333366403034        2.38730021626122
C           -4.65325709349266       -4.64476164383957       -0.27165643579773
C           -1.81877143229615       -3.85643502791254       -1.32678385701805
C           -1.68173673193411       -5.22649917610810       -1.12212835540538
C           -0.95877728923694       -5.99798358993081       -2.01295771868310
C           -0.35392926615157       -5.41489878848483       -3.11186569898311
C           -0.48437074944302       -4.05148323273628       -3.32361192015972
C           -1.21717084763558       -3.27833492913094       -2.44621051825512
C           -4.63558239527030       -5.64992379028558        0.68792505469024
C           -5.32467606276682       -6.83062661209016        0.47689593930166
C           -6.04355964436283       -7.01377516935567       -0.68945877394698
C           -6.07620169003346       -6.01131379330129       -1.64262296656753
C           -5.38323738162882       -4.83247433621776       -1.43629304511268
C            4.96097509082796       -4.29926405506800       -0.23490873320082
C            4.78158673816795       -5.44347092700719       -1.00203811614309
C            5.60882113499911       -6.53836887063445       -0.82904900805538
C            6.63222328365632       -6.49909742514219        0.10183414732416
C            6.83150501822495       -5.35522098128974        0.85636684168366
C            6.00393450333550       -4.26204349974901        0.68795064085021
C            1.93891039383870       -3.87858879193108        0.61347992528638
C            1.43861657584916       -3.54341797552184        1.87271624488783
C            0.66928025497503       -4.44260197764933        2.58331568974305
C            0.40097473149492       -5.69577654022549        2.05945950030689
C            0.90024237210798       -6.03938137208517        0.81555351120857
C            1.65777975973737       -5.13599272928315        0.09311271546316
B            2.46994383086327        1.28691051299504       -0.49385092659304
B           -2.56170526493257        1.07119760615381        0.52776514280367
C            3.95133385625541        6.27373558489364        0.18410280152174
C            5.38389053019172        5.73947217470019        0.09200105177772
C            3.74132811798297        7.26550420498570       -0.96879560991618
C            3.80516282088230        6.99794176674776        1.53006443536489
H            0.05947431720356       -2.77555241458409       -0.25882418961392
H            4.29232572418076        3.57498214333602       -0.14833983801286
H            1.26352439236450        6.57189655576534        0.31255856424846
H           -1.65674974197109        6.47603005903257        0.50520400952952
H           -4.51532921517758        3.28239259717476        0.55892681459429
H           -5.05441497927797        7.69556879333718       -0.49943093650806
H           -3.31209426910532        7.47261483039210       -0.62356955040265
H           -4.39847950084487        6.37936501872762       -1.47715754947711
H           -6.45787265734408        6.19973827314818        0.79067473915836
H           -5.83101740021268        4.76149177331818        1.58814015511760
H           -5.93553433215531        4.82774066841624       -0.17871725794081
H           -4.10186678729560        6.16830642702659        2.80771038406537
H           -3.15518174069706        7.36329858078374        1.92409709775857
H           -4.89973852764752        7.55824002676112        2.06570665368030
H            6.71531046337816       -2.07811211512669       -1.30231871496702
H            8.07907612169934       -0.29564781718115       -2.20172294858354
H            8.33667054207819        2.00900411295769       -3.03238443971008
H            6.38752987600553        3.52236678378678       -3.07297144640508
H            4.22912965140710        2.78339469110164       -2.16753502699067
H           -6.50209842775500       -2.69304157727415        1.17451798753653
H           -4.31388196851391        2.22395178684158        2.44736071792440
H           -6.43337745405820        2.66386721301223        3.60674030539901
H           -8.25823218100076        1.00272494897848        3.53627513556357
H           -7.90575955718600       -1.15290796327777        2.39882843805697
H           -2.13862894387607       -5.68292006919761       -0.25902170131539
H           -0.87137303462279       -7.06037443973939       -1.84845907057047
H            0.20965498628282       -6.01891088166055       -3.80600565799673
H           -0.02000476984397       -3.59076281653363       -4.18281575568978
H           -1.33131487027101       -2.22026604307102       -2.62832472367274
H           -4.07581124154432       -5.50240778778622        1.60104438811653
H           -5.29850563032606       -7.61045115281607        1.22444838568356
H           -6.58145877597370       -7.93614035476526       -0.85236588055470
H           -6.64250670171420       -6.14808486217311       -2.55108501952898
H           -5.40445428607975       -4.04745131131853       -2.17806418371845
H            4.00818362438772       -5.46452184825134       -1.75524524445557
H            5.45839487084846       -7.42422859131533       -1.42853641214629
H            7.27899430958699       -7.35393513322976        0.23368962900025
H            7.63533774460797       -5.31579858714166        1.57745568621597
H            6.15345636820380       -3.36862681414064        1.27711514830498
H            1.65818093423905       -2.57225117805390        2.29159321720366
H            0.28471625325963       -4.16633380657245        3.55375162623620
H           -0.19446805795820       -6.40143599239473        2.61892584453864
H            0.69826578216267       -7.01555136580965        0.40312385080392
H            2.01080042337118       -5.40125734964351       -0.88951090697976
H            6.08379249162044        6.56833730970915        0.18284968781319
H            5.59341970009995        5.03618186549508        0.89445928840850
H            5.56432942290331        5.25185749395657       -0.86316791509794
H            4.50043680021876        8.04370437653685       -0.93695935774859
H            2.76571102481823        7.74061497594503       -0.91303267996861
H            3.81473280243505        6.75030096579886       -1.92431904575780
H            3.91991367411168        6.29070458282261        2.34872292060695
H            4.56905958895760        7.76633521418659        1.62832816870144
H            2.83290116156146        7.47324373348047        1.62489260470736
