132
energy: -196.935047527998 gnorm: 0.000906906620 xtb: 6.7.1 (edcfbbe)
C           -1.26089334148532        0.33637661504767       -0.00332163359389
C           -1.18386310605942       -1.05857853088585       -0.19738224870466
C            0.04261547766086       -1.70376030526089       -0.32270968146855
C            1.22923642483956       -0.97695092043148       -0.33410243061156
C            1.21718963223058        0.43762848315895       -0.31646817541776
C           -0.04369063071487        1.03137218351659       -0.12097530243789
N           -0.09185750732933        2.38404463885149       -0.01404686065011
N           -2.38185180487901       -1.74897376881081       -0.18440429905400
N            2.46980622270973       -1.58649082801934       -0.36063653278646
C            0.98911209355368        3.21972885374423       -0.03955852882629
C            0.55731360189860        4.55331709436026        0.12136608716194
C           -0.89155296810415        4.49540535113052        0.20778964067915
C           -1.22791403048903        3.12600430003607        0.15531875935196
C            2.31094075571552        2.81380462407603       -0.19299792922005
C            3.24093705541946        3.85277314446225       -0.03150508153094
C            2.87494287903787        5.18152784951380        0.15536836818651
C            1.52044583858489        5.53902284889464        0.19711265705968
C           -1.91999298453178        5.40958037595260        0.31430034131496
C           -3.24590862088818        4.95611576401710        0.34492465728968
C           -3.51623896089307        3.59147437146967        0.33847871075408
C           -2.51327768911485        2.61044146121425        0.29343767382988
C           -4.35817533231705        5.99657651162984        0.40328713577796
C           -4.25876216664573        6.90527066996955       -0.83068596112768
C           -5.75839715010054        5.37643750941383        0.42074703565678
C           -4.19605534684769        6.83330330243324        1.68058562300230
C            2.82057683647132       -2.91865390414739       -0.14674482595928
C            4.17193523626797       -3.07616380166092       -0.30555832303976
C            4.70737461162120       -1.78884700730985       -0.66264059193132
C            3.61162771899102       -0.88338636441190       -0.66560235195104
C           -3.47360063746887       -1.22749646920981        0.46550286155256
C           -4.42918020303209       -2.26694241695682        0.62661609166495
C           -3.87920008997395       -3.43098945749323       -0.01078617081014
C           -2.65538144061104       -3.07762143013463       -0.52452424842993
C            5.96477175381126       -1.33430660484207       -0.97071310616726
C            6.12352858599092        0.00956488010243       -1.36204437145646
C            5.00735637715185        0.90001690772409       -1.37638067380525
C            3.72692533440496        0.47912479382289       -0.90519459861663
C            7.38779447699630        0.49022499687492       -1.76993386456004
C            7.54457812545475        1.76431202020581       -2.23494292011065
C            6.42827304602573        2.60568476682734       -2.34943313725171
C            5.19619064753364        2.18106500130673       -1.93387797227370
C           -3.65764855500529        0.08297037216477        0.88313454579799
C           -4.83360106404038        0.30485296558885        1.66120279805100
C           -5.81060798899610       -0.72533136016162        1.82739050766928
C           -5.60775904502535       -2.00753140417263        1.28128308649071
C           -5.03915634404836        1.52159375967542        2.34322771872769
C           -6.17087665141711        1.75024964731789        3.07592861533469
C           -7.16492608749733        0.76532892298077        3.17266222204313
C           -6.97846128900512       -0.44656474219383        2.57276336082090
C           -4.57891933287951       -4.71852110223794       -0.06296143368646
C           -1.89139305927130       -3.79386160899156       -1.53995793864297
C           -1.79516912262877       -5.18362877440132       -1.54928539985758
C           -1.16490382062672       -5.83799329477850       -2.59183772421441
C           -0.60173263735277       -5.12231312856215       -3.63338783707697
C           -0.69228317812045       -3.73960105153697       -3.63643328655148
C           -1.34014676668470       -3.08225338610236       -2.61064738866304
C           -4.15083430404162       -5.78083358004488        0.72929853882859
C           -4.83431179213181       -6.98262445098299        0.71705321247354
C           -5.95737602476157       -7.13481242713459       -0.07916701420576
C           -6.39883034050270       -6.07751814052245       -0.85644447329732
C           -5.71728864834201       -4.87371432440816       -0.84561260854165
C            4.98947599098911       -4.25997275350172       -0.04375479964804
C            4.74490839306385       -5.49093590247601       -0.64349099431596
C            5.54742123741216       -6.58120522897132       -0.36150791790628
C            6.60956533368344       -6.45905828531920        0.51749310204866
C            6.86811043347031       -5.23545216779403        1.11283601989887
C            6.06704880662294       -4.14507455062328        0.83398972965423
C            1.89731528801980       -3.93921281314202        0.36934020770966
C            1.45884357866476       -3.85245825353747        1.68932866075235
C            0.65318437430605       -4.83948200690675        2.22403919535715
C            0.29446305686085       -5.93547130628308        1.45679891905567
C            0.72398279547315       -6.02728667398045        0.14448752052275
C            1.50879082201450       -5.02856878174165       -0.40280954373722
B            2.48339006183462        1.29851583297294       -0.49982946887772
B           -2.56231204160622        1.06022375526532        0.39564192236373
C            3.91472032391172        6.28594004831679        0.30389159590698
C            5.35342098050540        5.76101585984830        0.28208778035008
C            3.75400368452065        7.27752999991950       -0.85753271094202
C            3.69754313562994        7.00841453162980        1.64111798873796
H            0.06660766377959       -2.77606948334023       -0.39816841700374
H            4.28430743506847        3.58880400727670       -0.03477220633336
H            1.22504609768846        6.57063489902107        0.31269205702417
H           -1.69690408930970        6.46476308495851        0.35576514231668
H           -4.53884659463922        3.25390616294253        0.35226304884819
H           -5.06014554528445        7.64132362305560       -0.82093317337782
H           -3.31139766520570        7.43647165872381       -0.85981286919805
H           -4.34506701430133        6.31344570214637       -1.73980030532885
H           -6.50283314243006        6.16961268626870        0.45864828354513
H           -5.89910636704512        4.74273312010204        1.29331308322451
H           -5.93968695869461        4.79007587715974       -0.47701169601062
H           -4.25079558583985        6.19236134597273        2.55826042108643
H           -3.24242775093137        7.35353567631534        1.69874256861782
H           -4.98866950861755        7.57601366398923        1.74554741460103
H            6.82085989476621       -1.99307490202878       -0.95007312093361
H            8.23108911765569       -0.18489548271773       -1.72402053156626
H            8.51659965415162        2.12005156773942       -2.54415018508308
H            6.54818132660102        3.58931375075607       -2.78111762838738
H            4.33120440501626        2.81110521184004       -2.06640598653055
H           -6.36204754559262       -2.77195269891608        1.40144418582897
H           -4.25895260602906        2.26437843549621        2.30564563093274
H           -6.30129390404975        2.68843833406344        3.59633554085758
H           -8.06091362143555        0.96357979143943        3.74275462970794
H           -7.71880040944318       -1.22801881362829        2.67390663003114
H           -2.21701931509175       -5.75480469477617       -0.73944059760365
H           -1.11397284705752       -6.91730879096684       -2.59006928890404
H           -0.10398162702030       -5.63646754520600       -4.44249595121691
H           -0.26673609278315       -3.17066075132917       -4.45029394204864
H           -1.43434036186725       -2.00689274000367       -2.64524761621756
H           -3.28578988726297       -5.65119105231573        1.36601343930041
H           -4.49307925478082       -7.80234022563248        1.33304138273833
H           -6.49085067479593       -8.07410895498217       -0.08795909499947
H           -7.27919391032217       -6.19098761558868       -1.47238063990127
H           -6.05962819691115       -4.04673189509571       -1.45100134200962
H            3.93502945024216       -5.59112271667554       -1.34786854789027
H            5.34521413477988       -7.53106510561052       -0.83529347070442
H            7.23553763493650       -7.31187023678171        0.73539712270923
H            7.69650340850459       -5.13228707553617        1.79900917837284
H            6.26071604176934       -3.19437364199920        1.30990395763013
H            1.75437971297035       -3.00507270869420        2.29172340479127
H            0.31399699990293       -4.75962204186992        3.24652455963078
H           -0.31869716680615       -6.71679074335380        1.88134886595745
H            0.44838333814997       -6.87986231933485       -0.45686149368389
H            1.79772344394388       -5.07876991409015       -1.44222633819733
H            6.04262925250156        6.59483436919451        0.40221823205002
H            5.52871096232041        5.06176265978646        1.09639340849684
H            5.58160276794073        5.27074297467014       -0.66121074668550
H            4.50440695211453        8.06238187813033       -0.78848897222198
H            2.77287737417578        7.74438945188109       -0.84929324726482
H            3.87841869609051        6.76372748080602       -1.80866387841085
H            3.78779464079957        6.30428652570850        2.46580562655288
H            4.44366603883476        7.78961074976970        1.77121865560092
H            2.71446227498536        7.46796575587158        1.69284428684039
