132
energy: -196.934985422699 gnorm: 0.002479357583 xtb: 6.7.1 (edcfbbe)
C           -1.26019494663142        0.33644147261507       -0.00528545760477
C           -1.18305135284268       -1.05813086512427       -0.20107212836605
C            0.04352242288875       -1.70263490561453       -0.32850426423212
C            1.23049963511179       -0.97634050557713       -0.33642767561674
C            1.21839114033923        0.43807686616195       -0.31519117156579
C           -0.04286868977237        1.03174448207353       -0.12089418220846
N           -0.09143739571115        2.38433970642040       -0.01273054788442
N           -2.38058910350458       -1.74970290248115       -0.18711807958858
N            2.47112788558885       -1.58601087610023       -0.36214394811833
C            0.98942962552890        3.21996150683266       -0.03618742120868
C            0.55725692676462        4.55358235585628        0.12336264646470
C           -0.89187639291779        4.49553439391127        0.20705660263032
C           -1.22768840721806        3.12600054930452        0.15493681175219
C            2.31154953177014        2.81406724471855       -0.18673762215277
C            3.24129247239719        3.85274265352425       -0.02285899039496
C            2.87491216651862        5.18150432190067        0.16228598816863
C            1.52039334159073        5.53927626538310        0.20046514882720
C           -1.92080057356238        5.40940649037089        0.31033921404962
C           -3.24645981933827        4.95524647927022        0.33859581296008
C           -3.51638256433505        3.59049055652917        0.33356815103584
C           -2.51303545227690        2.60995985987661        0.29107608694589
C           -4.35918357946455        5.99523078368125        0.39188135415256
C           -4.25721358721531        6.90021694548783       -0.84470352211789
C           -5.75908946399978        5.37452195027044        0.40816609053107
C           -4.19988678861147        6.83593778270249        1.66686129046123
C            2.82135841306404       -2.91844029138304       -0.14850213207264
C            4.17359004701020       -3.07485929229705       -0.30093972194727
C            4.70980762735784       -1.78693923355278       -0.65553970061179
C            3.61376922932634       -0.88206331563446       -0.66185170408500
C           -3.47186450843686       -1.22846380121174        0.46446086745922
C           -4.42617166278822       -2.26866570494648        0.62842658472972
C           -3.87610337146074       -3.43293840428599       -0.00902030015030
C           -2.65377522672853       -3.07897238061459       -0.52656062670004
C            5.96792819876982       -1.33232392384626       -0.96041520944009
C            6.12757871463977        0.01136920396200       -1.35172431810146
C            5.01162014239536        0.90217435830747       -1.36689924346210
C            3.72991353959441        0.48096439056953       -0.89885872049116
C            7.39222588438295        0.49184843529278       -1.75897891198249
C            7.54974424460093        1.76612208516889       -2.22315950240037
C            6.43426277172144        2.60832370035376       -2.33687356566570
C            5.20155101928030        2.18389642079830       -1.92274178683464
C           -3.65652204444179        0.08214202279879        0.88186118365068
C           -4.83208101602663        0.30346170626823        1.66092769481299
C           -5.80774659111632       -0.72754326114703        1.82961077684325
C           -5.60387922720052       -2.00999145649282        1.28490627382698
C           -5.03868911306087        1.52112248147924        2.34103854018826
C           -6.17065072002697        1.75004497459646        3.07328747584420
C           -7.16374399738135        0.76460750379929        3.17187119303321
C           -6.97577608291532       -0.44838433003273        2.57497322540216
C           -4.57594473162997       -4.72039677083738       -0.05397783736857
C           -1.89365471705585       -3.79469028588495       -1.54525858790440
C           -1.80377073469616       -5.18449173727023       -1.55902667531399
C           -1.17914494767318       -5.83830948800773       -2.60501196285026
C           -0.61406300692302       -5.12221380332686       -3.64513801518046
C           -0.69781648933341       -3.73956145448155       -3.64365407093224
C           -1.34072592867310       -3.08273072317908       -2.61479606918069
C           -4.14250861874234       -5.78063896978188        0.73862093385399
C           -4.82762429263218       -6.98139320948694        0.73701558291604
C           -5.95725185895880       -7.13458462275444       -0.04922740363452
C           -6.40327820014108       -6.07997816021949       -0.82759301305248
C           -5.72026175457902       -4.87714364419192       -0.82736535660752
C            4.99299283805182       -4.25714136897472       -0.03685245056483
C            4.75313999371695       -5.48890163956493       -0.63655014373836
C            5.55944536175003       -6.57625019861468       -0.35401399608808
C            6.62042553721983       -6.45037040131350        0.52591766171698
C            6.87381332758246       -5.22619141336112        1.12218695036477
C            6.06907768761370       -4.13875719020037        0.84258575154020
C            1.89404028901633       -3.94105526950559        0.35600493177193
C            1.44655796579306       -3.86211727440956        1.67363086447204
C            0.63451653793928       -4.85016128537829        2.19611113952897
C            0.27989705811169       -5.94062791027051        1.42003006761689
C            0.72110734945761       -6.02712148052136        0.11101107916388
C            1.51108302023946       -5.02585785379523       -0.42476461914142
B            2.48501776261611        1.29931139099143       -0.49467340532753
B           -2.56186989740073        1.05982142472133        0.39351897966317
C            3.91438766416724        6.28592168011109        0.31182182851769
C            5.35304990643195        5.76084170086768        0.29419047994268
C            3.75638277629667        7.27519907788308       -0.85190920977880
C            3.69398189680671        7.01060249400853        1.64710057638872
H            0.06684473729092       -2.77455132357124       -0.40753181385012
H            4.28460755089807        3.58865633885699       -0.02285782725390
H            1.22483537898509        6.57093803420759        0.31417222660904
H           -1.69811920398539        6.46470532927907        0.35080610873033
H           -4.53885300765214        3.25266725163813        0.34613812429025
H           -5.05849787524172        7.63641432773040       -0.83905503025689
H           -3.30964906941545        7.43122454441247       -0.87329809893361
H           -4.34146980895039        6.30557505188824       -1.75220670476228
H           -6.50410378260330        6.16732709794444        0.44116577592123
H           -5.90155591152975        4.74419110453139        1.28294079178171
H           -5.93788971676064        4.78457525414227       -0.48755229698798
H           -4.25491892505607        6.19768977839263        2.54639384286704
H           -3.24699857412239        7.35736796777798        1.68448079155356
H           -4.99352342032126        7.57793994165617        1.72849578075660
H            6.82389065651766       -1.99117541748690       -0.93755283923485
H            8.23500979341426       -0.18391909280168       -1.71365776290143
H            8.52192498656982        2.12148455764278       -2.53219730245464
H            6.55494964453178        3.59246951089331       -2.76736413663548
H            4.33714366205370        2.81452405025967       -2.05514743723247
H           -6.35692850905085       -2.77520545432426        1.40676960464154
H           -4.25919317076828        2.26443208427494        2.30179738973242
H           -6.30195404560597        2.68901888267033        3.59185043046314
H           -8.06042755252814        0.96344947779855        3.74090402364894
H           -7.71509969977911       -1.23031397536306        2.67812840598267
H           -2.22776143625124       -5.75600393048601       -0.75065112342194
H           -1.13390598901049       -6.91762208956330       -2.60693664970489
H           -0.12121655627368       -5.63589444437741       -4.45727315889138
H           -0.27074149032372       -3.17026542107654       -4.45640650169659
H           -1.43075402383577       -2.00746381899512       -2.64650349887122
H           -3.27228475501085       -5.64938353498702        1.36756967608909
H           -4.48265278312218       -7.79938198190588        1.35328141345429
H           -6.49253622471049       -8.07280917439808       -0.04896371258291
H           -7.28839955734759       -6.19481396401684       -1.43612320428415
H           -6.06620052261738       -4.05208078891424       -1.43344299260051
H            3.94385479042450       -5.59183182918921       -1.34098746042862
H            5.36131295396754       -7.52677684029187       -0.82817191324172
H            7.24943472702505       -7.30085024423697        0.74403378867268
H            7.70116180119741       -5.12033967916330        1.80931183726553
H            6.25834429584946       -3.18744600145892        1.31917228087896
H            1.73991817280650       -3.01891247795468        2.28366995294448
H            0.28652417976820       -4.77512709696378        3.21552452127219
H           -0.33718830992045       -6.72358115563427        1.83582400264158
H            0.45008848287711       -6.87641656472390       -0.49642272458155
H            1.80799716711242       -5.06991010701090       -1.46186303072625
H            6.04207193292152        6.59499319480990        0.41326841450137
H            5.52684314919857        5.06383926266332        1.11064160941817
H            5.58305771727014        5.26804663790377       -0.64736576916742
H            4.50569246745945        8.06094814840054       -0.78213967200894
H            2.77484082209470        7.74103673162601       -0.84755371235946
H            3.88416560545804        6.75963268630303       -1.80150851050513
H            3.78141591097767        6.30791174744097        2.47309939043908
H            4.43999827588422        7.79155677173031        1.77795539918416
H            2.71102996323772        7.47079452879089        1.69506673178193
