132
energy: -196.935318600120 gnorm: 0.001022288538 xtb: 6.7.1 (edcfbbe)
C           -1.25730423320855        0.33208857851936        0.01955925264796
C           -1.18135849581489       -1.06376527212022       -0.17123521618348
C            0.04505612753528       -1.70962821499211       -0.29292023385443
C            1.23159175808339       -0.98180944936591       -0.31106519942049
C            1.21976668832963        0.43272550101811       -0.30278496262862
C           -0.04068912531921        1.02677471438307       -0.10449234863533
N           -0.08822184280559        2.37994866351016       -0.00450747923261
N           -2.38243832394029       -1.74928076903716       -0.16477844998834
N            2.47255042854606       -1.59058315378483       -0.34161593055100
C            0.99245387435290        3.21600532946194       -0.04009881407459
C            0.56068330946017        4.54942932968744        0.12238391659902
C           -0.88708221817301        4.49129929417374        0.22220034032915
C           -1.22339475129716        3.12197770979311        0.17133606413771
C            2.31354392917765        2.81112889997095       -0.20455365372379
C            3.24325523526850        3.85333590897805       -0.05946598573815
C            2.87701152718024        5.18250954012338        0.12602629353883
C            1.52251345299901        5.53697962923420        0.18515164370426
C           -1.91420869220773        5.40513476188419        0.34310028304859
C           -3.23993287992641        4.95185556862081        0.38451845965100
C           -3.51043727224924        3.58750949635975        0.37156688643162
C           -2.50787805932963        2.60672044043512        0.31671186333980
C           -4.35170636756843        5.99096684656697        0.46779177521253
C           -4.26586417044404        6.91909413520535       -0.75235409275467
C           -5.75155622744829        5.36990390258716        0.49003101444203
C           -4.17632405873065        6.80707792537556        1.75666012798991
C            2.82413875244064       -2.92289135780829       -0.13099185875651
C            4.17030799995534       -3.08663064386555       -0.32519538951328
C            4.70154071143006       -1.80148496447807       -0.69574310777311
C            3.60916214883792       -0.89163027335215       -0.67465210249742
C           -3.47873714960729       -1.22522302235521        0.47512204536364
C           -4.44466710545150       -2.25863674725156        0.61476613113800
C           -3.89533582092805       -3.42117088480804       -0.02552226402526
C           -2.66114120377501       -3.07326111439254       -0.51581984623199
C            5.95384700931588       -1.35068066596200       -1.02906639209859
C            6.10855894288416       -0.00684804350606       -1.42267382661836
C            4.99429183620004        0.88633891921524       -1.41757593657125
C            3.72193002508334        0.46972471737301       -0.92114977955565
C            7.36649238045960        0.46991187563382       -1.85436608619070
C            7.51745493318171        1.74194665123621       -2.32688646564856
C            6.40068290576805        2.58516751951250       -2.42333787028599
C            5.17588221187646        2.16525223378434       -1.98198332460880
C           -3.65990510742623        0.08370911966715        0.89808926851018
C           -4.84172717989058        0.30754779603254        1.66673905114342
C           -5.82858431825971       -0.71648135128434        1.81207003578121
C           -5.63035369987391       -1.99482492169837        1.25458896450154
C           -5.04383098101397        1.51739694376943        2.36158602074406
C           -6.17899982599503        1.74487758330672        3.08963625013901
C           -7.18193307547725        0.76716048594812        3.16579866723472
C           -7.00100915817122       -0.43765217098101        2.54998702447209
C           -4.60122784223522       -4.70387728743887       -0.11672702815295
C           -1.87962571035564       -3.79121672215554       -1.51647790971451
C           -1.75418284874403       -5.17830123211665       -1.50226649796115
C           -1.09513849706502       -5.83340665234251       -2.52622894018856
C           -0.53836879996378       -5.12032261608413       -3.57339375212327
C           -0.66283786065022       -3.74066400080837       -3.60162222007532
C           -1.33487084738814       -3.08265724864756       -2.59193646488477
C           -4.21393833055423       -5.77524170857139        0.68376628671233
C           -4.89562727811408       -6.97650236032593        0.62298371457425
C           -5.97684794054253       -7.11910388754489       -0.23074652040967
C           -6.38023394329203       -6.05158897070667       -1.01511593852576
C           -5.70030484966222       -4.84854469550738       -0.95584996969252
C            4.98259776987642       -4.27796882643258       -0.08021479691117
C            4.71715392918388       -5.50313371574201       -0.68311295360821
C            5.50266139844563       -6.60716739829693       -0.40717551438684
C            6.57059903221871       -6.50442398802961        0.46727330310692
C            6.85519470089111       -5.28489206824582        1.05887491850610
C            6.07025409181227       -4.18095705041431        0.78677893091807
C            1.91441780128491       -3.92483997749430        0.44056819169822
C            1.51331974283332       -3.78675499568407        1.76832693188931
C            0.72518882250953       -4.75252647576304        2.36365449118009
C            0.34158410907121       -5.87470711980942        1.64759523007398
C            0.73052896714293       -6.01540707056374        0.32730046227402
C            1.50353403363758       -5.04157488739215       -0.27877725264185
B            2.48425612307360        1.29307880649142       -0.50321103250293
B           -2.55820887827297        1.05713498166761        0.41814054424296
C            3.91431994400356        6.29140562771055        0.25927720149256
C            5.35495516609760        5.77423255134147        0.20585853736443
C            3.72726166121095        7.29070967318080       -0.89161098256207
C            3.71853813824035        7.00498577260830        1.60480602402668
H            0.07153069889076       -2.78253880247727       -0.36302037738414
H            4.28733075541504        3.59215950954162       -0.07481191284833
H            1.22596271179695        6.56790969713719        0.30382359282397
H           -1.69050747991379        6.46002907615601        0.38876312881532
H           -4.53264905239587        3.24921251328801        0.38954080779432
H           -5.06350643634122        7.65849927884081       -0.71851943091044
H           -3.31658121884688        7.44646305357004       -0.78703738084864
H           -4.36858881669291        6.34267938976598       -1.66961454567534
H           -6.49559408533627        6.16191846676426        0.55008408965859
H           -5.88270593798918        4.72095732657071        1.35265263851407
H           -5.94232676986986        4.79924764645183       -0.41578720600877
H           -4.22141540975476        6.15185595172029        2.62434756802407
H           -3.22256766155120        7.32723286417238        1.77297796132779
H           -4.96848414794922        7.54818432380725        1.84232168127744
H            6.80836298682072       -2.01185122912927       -1.02633558570658
H            8.20913099537191       -0.20683720044102       -1.82087702321373
H            8.48432847091622        2.09451295398273       -2.65552733875697
H            6.51428674828548        3.56667752921136       -2.86138053846606
H            4.31047750242545        2.79782444209978       -2.09939414289641
H           -6.39332413479651       -2.75326621192982        1.35664431067360
H           -4.25851474269254        2.25567788670429        2.33998431329075
H           -6.30533242622155        2.67671463528466        3.62240417652721
H           -8.08008893703064        0.96470424600194        3.73263607955592
H           -7.74855177731714       -1.21438114407000        2.63354082568945
H           -2.17377805706549       -5.74452002343329       -0.68738977312229
H           -1.01599167231961       -6.91067706237100       -2.50598407082663
H           -0.01806482232776       -5.63486820136653       -4.36763715656536
H           -0.24396223444303       -3.17526945208502       -4.42135789177981
H           -1.45290160114262       -2.01009328971658       -2.64154036885250
H           -3.38140698012303       -5.65478882371990        1.36400627575429
H           -4.58464768747534       -7.80349668039359        1.24547715622982
H           -6.50704399097495       -8.05856154938265       -0.28001118042676
H           -7.22915158658981       -6.15692053179863       -1.67530676030266
H           -6.01317215596381       -4.01425426953899       -1.56737745222778
H            3.90445820854981       -5.58850292901891       -1.38644846732497
H            5.28168131350879       -7.55271866326587       -0.88112750271979
H            7.18100321046275       -7.36877271837992        0.68367868372414
H            7.69072348870244       -5.19547984707343        1.73830063657551
H            6.28499153111798       -3.23389266668589        1.26068867584804
H            1.82716124433622       -2.91765008566958        2.32898781965160
H            0.41875117688042       -4.63551681403817        3.39274134955881
H           -0.26024171432876       -6.63804553479847        2.11880837287205
H            0.43291218820352       -6.88739569568296       -0.23490365049187
H            1.76478916316651       -5.13251205274171       -1.32241140314745
H            6.04214327535842        6.61122016146276        0.31552205597894
H            5.55094098814681        5.07238322938492        1.01310319910214
H            5.56568250111941        5.28946279538845       -0.74432872471339
H            4.46516628967262        8.08739175274042       -0.82048963554588
H            2.73880124699547        7.74149544189301       -0.87150605592265
H            3.85281169999282        6.78853094848146       -1.84876905750383
H            3.82229187316192        6.29589724382090        2.42361399334806
H            4.46630097128895        7.78586238328506        1.72778658740111
H            2.73613364816540        7.46362327443601        1.67483689698998
