132
energy: -196.936245977430 gnorm: 0.003483919380 xtb: 6.7.1 (edcfbbe)
C           -1.25916564310075        0.32429398297427        0.12046067181792
C           -1.18797277266035       -1.07191696562239       -0.07822358801832
C            0.03654073297366       -1.72103914364997       -0.19860000484758
C            1.22293438678899       -0.99423749888046       -0.22830804146298
C            1.21341869444387        0.41911951237896       -0.23189405538534
C           -0.04170125293615        1.01583562398741       -0.01240185402725
N           -0.08121116110411        2.36900339751641        0.08715510029888
N           -2.39166517844944       -1.75112859210292       -0.09693547377093
N            2.46294959581605       -1.60186105214746       -0.28097029941267
C            1.00167292679796        3.20039823870744        0.01995909141431
C            0.57980180454137        4.53606304472762        0.18900642643441
C           -0.86475268084174        4.48365854410676        0.32866286483162
C           -1.20927809207776        3.11606635563201        0.28443089263427
C            2.31540984376554        2.79184576881442       -0.18892838402613
C            3.25245883323461        3.83240054022330       -0.09138955163620
C            2.89615435131880        5.16431660090913        0.09388469290547
C            1.54584840637454        5.52141486699882        0.20757884860226
C           -1.88393135193763        5.40269653246426        0.47445807655926
C           -3.21055214591363        4.95601755126222        0.54289886049699
C           -3.48957115609136        3.59339914266039        0.52024925412543
C           -2.49457352163959        2.60597655718996        0.44240949294941
C           -4.31362557114261        6.00086534470837        0.66549406673628
C           -4.25730321813623        6.93963305182614       -0.54812256401160
C           -5.71594341905824        5.38794642281691        0.72366505936239
C           -4.09623684988140        6.80449155933943        1.95620036918236
C            2.81851958370818       -2.93354294128352       -0.06462940907450
C            4.14233496896202       -3.11291267983918       -0.36654692447624
C            4.65540289075936       -1.83723476142850       -0.79132372303679
C            3.57657047427040       -0.91636089723093       -0.70104115282559
C           -3.50818646153875       -1.21816668141613        0.49991599247508
C           -4.50403594376678       -2.23190786542075        0.56465225448668
C           -3.94592491188404       -3.39011324644601       -0.07445473394774
C           -2.67784657910363       -3.06315875615892       -0.47782077759241
C            5.88546809541385       -1.40048718209417       -1.21351913868919
C            6.02391536866353       -0.05989811253580       -1.62493551632103
C            4.92145086208612        0.84483521665037       -1.54718663786834
C            3.68173146759973        0.44189233945082       -0.96567687647381
C            7.25266647183682        0.40294704268345       -2.14580860329442
C            7.38331033894011        1.67247277610826       -2.63145345508867
C            6.27244928535701        2.52854473427934       -2.64946124928266
C            5.07724129768923        2.12208885115634       -2.12289148891182
C           -3.68240271011376        0.08371565411713        0.94699936341966
C           -4.89147507508309        0.31228322635944        1.67026365676730
C           -5.91202285606705       -0.68632867328276        1.72977195331139
C           -5.71715344657661       -1.95275398878498        1.14370062792636
C           -5.09018983955655        1.49987737297011        2.40308126841777
C           -6.25548453876583        1.73888197562500        3.07769001488056
C           -7.29251031222780        0.79492477221051        3.05827055384732
C           -7.11466476808180       -0.39411998467176        2.41106343984198
C           -4.66619917944200       -4.65285961355759       -0.28890743699743
C           -1.82918215170277       -3.83924499014153       -1.37703013902289
C           -1.66921876412196       -5.21316144679638       -1.21701882717379
C           -0.92687631196134       -5.94060864174267       -2.12901327529771
C           -0.32603070547189       -5.31071050003450       -3.20540464218147
C           -0.48503814028853       -3.94485655509600       -3.37699651172392
C           -1.23760540684455       -3.21552237303919       -2.47850991112319
C           -4.53252452431656       -5.70127344467599        0.61662725928072
C           -5.22331437223483       -6.88321901581238        0.42327287421378
C           -6.06402072362415       -7.02711008675106       -0.66987274296705
C           -6.21041188319629       -5.98363465891654       -1.56865635758995
C           -5.51694159200545       -4.80164689799747       -1.37961885726097
C            4.97928124059140       -4.30168389352240       -0.19173455688786
C            4.75963517427985       -5.48176837876434       -0.89398000044542
C            5.58739145946611       -6.57408151463312       -0.70687068545166
C            6.65150366693524       -6.50106661835112        0.17535730918860
C            6.89105732040558       -5.32333203368792        0.86427373771100
C            6.06416373099420       -4.23173118990398        0.68023187130563
C            1.93752476104037       -3.87775780075442        0.62887044489884
C            1.47924757785630       -3.55117607186494        1.90622693821231
C            0.69046815355991       -4.43675361659491        2.61320539011469
C            0.35551276935742       -5.66377963512996        2.06135647237689
C            0.80493345984246       -5.99377626834252        0.79530749099101
C            1.58666319366341       -5.10589313385854        0.07865929463941
B            2.47192588256966        1.27285861924885       -0.48513537391505
B           -2.55710445407165        1.05410479796847        0.51941051024638
C            3.93974605329687        6.27327847213103        0.15909703630322
C            5.37534585958319        5.75333603008375        0.03860506735302
C            3.69444716381777        7.25402720458140       -0.99697641073514
C            3.81421361975070        7.00847816743358        1.50106469458419
H            0.06443727484064       -2.79395283438279       -0.26744748805912
H            4.29432885008757        3.56744192480107       -0.14780792287606
H            1.25608074216870        6.55405104475651        0.32910482320592
H           -1.65344161056454        6.45621782731731        0.51820533274113
H           -4.51386635301841        3.26273887117161        0.54870622499984
H           -5.04775733694159        7.68479357196329       -0.48332443208784
H           -3.30538174751213        7.45994651474659       -0.60677459440685
H           -4.39244248581125        6.37260145555634       -1.46707709626874
H           -6.45280569764378        6.18376013246298        0.81511676711542
H           -5.82435116805614        4.73020435158661        1.58276027069787
H           -5.93826505853920        4.82818670104151       -0.18186518420444
H           -4.12737471860165        6.14260433585226        2.81947950948074
H           -3.13630148776460        7.31330433293451        1.95309587838895
H           -4.87714019422487        7.55397813129568        2.06764574100912
H            6.73213316590839       -2.06985662401592       -1.26254485059589
H            8.08853014046392       -0.28230335039821       -2.17013698619197
H            8.32818234757604        2.01366328645953       -3.02893141262135
H            6.36603488363172        3.50907512074473       -3.09453111665913
H            4.21301906998952        2.76467776140885       -2.17791103543908
H           -6.50465117569621       -2.69194175200813        1.18000020406168
H           -4.27934332903858        2.20825840477674        2.45558789178548
H           -6.38028963507981        2.65278733603059        3.64108459978562
H           -8.21529211447100        1.00383150940107        3.57914455841862
H           -7.88967850029287       -1.14771327345888        2.42572036667688
H           -2.12093990390885       -5.70796858258491       -0.37186863320790
H           -0.81324162714593       -7.00763199413010       -1.99679187902495
H            0.26071904280584       -5.88106842187102       -3.91169519151307
H           -0.02770231530003       -3.44756512091845       -4.22029880135633
H           -1.37725522457834       -2.15416760794882       -2.62977730582984
H           -3.88357223185431       -5.58188981963921        1.47359033335514
H           -5.10871545210950       -7.69455663684435        1.12791981361465
H           -6.60457905124197       -7.95014154452773       -0.82023937675733
H           -6.86951417739709       -6.09063747569092       -2.41882347346739
H           -5.62846521396190       -3.98621522268590       -2.08013403506930
H            3.95366799015033       -5.53711126681557       -1.61012496115376
H            5.40477413473601       -7.48570035130253       -1.25796004177104
H            7.29644113514698       -7.35531893885148        0.32012663931112
H            7.72579190686470       -5.25588528214784        1.54720909914806
H            6.24727055952420       -3.31420033862565        1.22153040807580
H            1.74754828908253       -2.59732638115000        2.33876340263440
H            0.34011139141553       -4.17401506538553        3.60118251605216
H           -0.25516451152879       -6.35901469748487        2.61859025560615
H            0.54387598872792       -6.94699084216377        0.35959235420742
H            1.90122742654951       -5.35227446042330       -0.92328029575762
H            6.06689243621814        6.59235561675543        0.08608433851383
H            5.61709164199091        5.07330788938037        0.85220165481073
H            5.53226615754578        5.24262528636057       -0.90834802709393
H            4.43318766941515        8.05310830268030       -0.97487954384360
H            2.70709268454182        7.70346511942862       -0.93626973442952
H            3.77471649659318        6.73644770275113       -1.95101629831092
H            3.97039200884355        6.31456327227062        2.32485790852757
H            4.56112639997145        7.79714299565714        1.56807545889229
H            2.83323038618787        7.46043659649288        1.61894331339432
