132
energy: -196.935211844212 gnorm: 0.001662015983 xtb: 6.7.1 (edcfbbe)
C           -1.26017826812583        0.33434136498212        0.00795188921945
C           -1.18374626014410       -1.06155709392919       -0.18233565470695
C            0.04264536268916       -1.70775813534678       -0.30314360618394
C            1.22895662303475       -0.97997977331370       -0.32109831853613
C            1.21700331236694        0.43476548987351       -0.31188057328953
C           -0.04337854405310        1.02883631701040       -0.11448044917637
N           -0.09068422482116        2.38186297496788       -0.01202751541371
N           -2.38395159747756       -1.74812959460230       -0.17367400405844
N            2.46974914272573       -1.58901582929200       -0.34949590870760
C            0.99025492415963        3.21781260473442       -0.04381276810684
C            0.55884439738794        4.55125086833917        0.11952982024240
C           -0.88926126848724        4.49341850884414        0.21443903220943
C           -1.22619007273275        3.12420815808451        0.16174776959100
C            2.31147978708382        2.81240865931936       -0.20522424080396
C            3.24155709665675        3.85323687332387       -0.05361840465769
C            2.87584156173054        5.18211703152112        0.13506931669100
C            1.52133986351814        5.53780854600432        0.18855048496673
C           -1.91655839218819        5.40774330532710        0.33107382185305
C           -3.24270099156973        4.95515857881328        0.36852560552795
C           -3.51355942152949        3.59080486828596        0.35697030333282
C           -2.51118941592288        2.60934718271058        0.30483331060648
C           -4.35427482464197        5.99548505633609        0.44343695462579
C           -4.26355543927179        6.91674787446378       -0.78160146028805
C           -5.75462999987459        5.37545815099651        0.46423182113405
C           -4.18344389607326        6.81889163405445        1.72829450988193
C            2.82160635629101       -2.92106965358621       -0.13748194638360
C            4.16970900052744       -3.08255291541032       -0.31951056309429
C            4.70235835125505       -1.79665666845683       -0.68470166005079
C            3.60838933460857       -0.88861381524359       -0.67287681727676
C           -3.47809972535381       -1.22512554998651        0.47026612198742
C           -4.43959405240916       -2.26106903384541        0.61931964629681
C           -3.89021629935624       -3.42442863788825       -0.01909671291997
C           -2.66028283070853       -3.07424763395885       -0.51876994412265
C            5.95668943699902       -1.34353056706428       -1.00722352057789
C            6.11266346664827        0.00068916154250       -1.39904670884997
C            4.99684717545695        0.89162212565290       -1.40450218640284
C            3.72144526934703        0.47274405012660       -0.91871521826732
C            7.37392107790803        0.48034926984578       -1.81705237593549
C            7.52714177066007        1.75329245089576       -2.28645177126638
C            6.40933429812177        2.59388327985117       -2.39530359441181
C            5.18103058750915        2.17078314933240       -1.96743480226338
C           -3.66015159580231        0.08463740534292        0.89011544465380
C           -4.83885963823656        0.30828789492690        1.66328783811578
C           -5.82162588998112       -0.71828202284291        1.81807490845426
C           -5.62217192116666       -1.99860816475594        1.26552808755320
C           -5.04158773010741        1.52097011559038        2.35308638562900
C           -6.17405890522741        1.74855412086841        3.08513528008311
C           -7.17293445857662        0.76731323217182        3.17148705660524
C           -6.99092464732195       -0.44007409294076        2.56084569995253
C           -4.59234316404597       -4.71006938109324       -0.09580899285377
C           -1.88458884200454       -3.79160524760712       -1.52435666577233
C           -1.76917647965881       -5.18009876009909       -1.51930431893918
C           -1.12026924932734       -5.83486034607947       -2.55025071297860
C           -0.56188835129687       -5.12042652260036       -3.59554610692374
C           -0.67441118247065       -3.73913138768627       -3.61391734399306
C           -1.33787383687577       -3.08140362144131       -2.59808306488888
C           -4.18739328270284       -5.77851928979151        0.69952376455095
C           -4.86769216030591       -6.98138142499589        0.65463262549965
C           -5.96536590554623       -7.12868138500452       -0.17726414753717
C           -6.38591236921580       -6.06407339467568       -0.95622151460107
C           -5.70730348871704       -4.85938413898670       -0.91282796164504
C            4.98293470797137       -4.27143062841027       -0.06774943223593
C            4.72413086717900       -5.49920433606363       -0.66846631945172
C            5.51455189615249       -6.59882902725322       -0.38889724588530
C            6.58021213262352       -6.48933030876373        0.48744358582643
C            6.85614008639144       -5.26783087226316        1.07926644945219
C            6.06659967857067       -4.16818061359672        0.80338175725566
C            1.90913377537612       -3.93148647796577        0.41545863192153
C            1.49657806837766       -3.81413894832655        1.74127357451314
C            0.70591050038367       -4.79112760508605        2.31531673047621
C            0.33260002689377       -5.90455963702421        1.57988998466306
C            0.73196361725401       -6.02334129761760        0.26080612712778
C            1.50565527191790       -5.03793154475264       -0.32431658624187
B            2.48193878850897        1.29515865568218       -0.50692099228122
B           -2.56113579296496        1.05939588629924        0.40650172863074
C            3.91468510975347        6.28867617685844        0.27608417399218
C            5.35439069031731        5.76758131888515        0.23613547849727
C            3.73952656264178        7.28642442640420       -0.87802223496096
C            3.71015667152038        7.00493884260319        1.61898730725812
H            0.06867506737694       -2.78076529651373       -0.37215110914798
H            4.28535122521155        3.59083639385876       -0.06627683125578
H            1.22553250811327        6.56898075329272        0.30798972024418
H           -1.69276632675357        6.46265118143696        0.37609077585947
H           -4.53609534826404        3.25308433780645        0.37343141633891
H           -5.06323376751945        7.65429777869222       -0.75669374799115
H           -3.31542811663848        7.44623493888798       -0.81382643985309
H           -4.35956220352169        6.33479940350787       -1.69605530239595
H           -6.49828802909966        6.16840672989573        0.51819656710205
H           -5.88892084958135        4.73059580820493        1.32946744823196
H           -5.94307468671325        4.80071297167073       -0.43970990719964
H           -4.23385076532820        6.16886415630075        2.59962680601500
H           -3.22897428422067        7.33779833623911        1.74637805422770
H           -4.97476482458428        7.56168551002342        1.80573310693170
H            6.81239165736553       -2.00307657053158       -0.99726203621781
H            8.21780628850019       -0.19430870007395       -1.77490576130224
H            8.49686181007073        2.10856140262760       -2.60343580986097
H            6.52546080046250        3.57576938980562       -2.83170555118124
H            4.31503047969367        2.80086700523901       -2.09435149523383
H           -6.38170897319502       -2.75941310007619        1.37622777644401
H           -4.25871245956523        2.26157136484523        2.32389904236787
H           -6.30138521285300        2.68301515914720        3.61321350058851
H           -8.06862868737252        0.96439323252108        3.74214218516456
H           -7.73539008588608       -1.21904164198746        2.65226307415851
H           -2.18813598321885       -5.74907040850926       -0.70611863757253
H           -1.05118988632267       -6.91317982682713       -2.53689833771289
H           -0.04921781788052       -5.63487853894589       -4.39509570665612
H           -0.25360705573798       -3.17173319310023       -4.43134786781501
H           -1.44669185538558       -2.00720531193615       -2.64187413311725
H           -3.34213079934307       -5.65468550161899        1.36348054396226
H           -4.54319664305399       -7.80598224529714        1.27315284712203
H           -6.49480252406475       -8.06932689267750       -0.21363735160605
H           -7.24751100655565       -6.17271230652010       -1.59926729765178
H           -6.03357636009881       -4.02730835633572       -1.52003276143746
H            3.91279163100194       -5.59027491785544       -1.37273692102379
H            5.29937172216494       -7.54618399240097       -0.86196468715997
H            7.19549401352206       -7.34989796259297        0.70534461769895
H            7.68869016280723       -5.17334920029084        1.76154422879655
H            6.27489265314063       -3.21967058135798        1.27723719827802
H            1.80190710878514       -2.95271383924828        2.31734107870661
H            0.39031296896150       -4.68998495335215        3.34374698327128
H           -0.27111189891433       -6.67655765536034        2.03415918888385
H            0.44226743460541       -6.88800330023853       -0.31696642275195
H            1.77431359648570       -5.11242103929003       -1.36779637169548
H            6.04273467512689        6.60239976293897        0.35405483106008
H            5.54004006821879        5.06395447923818        1.04439133762920
H            5.57353207363011        5.28349943406502       -0.71246029225640
H            4.48529120781135        8.07576787691280       -0.80826088418570
H            2.75547170232432        7.74691777584956       -0.86052981690168
H            3.86140475950433        6.78006527622526       -1.83354412015163
H            3.80916348895693        6.29725560740987        2.43980848179096
H            4.45718490875231        7.78620255827937        1.74513370316463
H            2.72733020687951        7.46357647675521        1.68256242484547
