132
energy: -196.936001876020 gnorm: 0.000597663216 xtb: 6.7.1 (edcfbbe)
C           -1.23667185282527        0.31538272081744        0.14926033014068
C           -1.16339473553101       -1.07747084480686       -0.06783011537320
C            0.06163310376496       -1.72250678925010       -0.19751912178359
C            1.24639026520237       -0.99391858795458       -0.21720847207706
C            1.23546590223323        0.41924729399639       -0.21146212604405
C           -0.02072437681751        1.01077630817222        0.01699592822464
N           -0.06412087020606        2.36294019236157        0.12350733816947
N           -2.36376126860878       -1.76125016171668       -0.09472945488961
N            2.48570715308957       -1.60079753368145       -0.27011253164649
C            1.01473516293457        3.19862251221502        0.04401120939679
C            0.58696092985431        4.53315255825506        0.21007791350457
C           -0.85694311972224        4.47438238500946        0.36070921210905
C           -1.19474593112768        3.10487082074891        0.32460811225542
C            2.32861772616006        2.79507853329346       -0.17703130923242
C            3.26027096134151        3.84224391753778       -0.09637519120267
C            2.89852495934862        5.17352309561901        0.08260133406965
C            1.54762167546289        5.52414241032200        0.20992879734040
C           -1.88146223891388        5.38863983730726        0.50205199465526
C           -3.20576940837061        4.93483840657682        0.57117987495503
C           -3.47711227928810        3.57064124389165        0.56048551702653
C           -2.47725053738941        2.58849462633255        0.48698687503988
C           -4.31743207635703        5.97226594877857        0.67651499880264
C           -4.24860817860705        6.91072691041671       -0.53672628283990
C           -5.71632032144941        5.34938117212210        0.71062050853715
C           -4.12612578225596        6.77721283973637        1.97010171897237
C            2.83753952284138       -2.93245187177469       -0.05038161308159
C            4.16363434553546       -3.11296381857693       -0.34282822887737
C            4.67847385019653       -1.83807913807145       -0.77120512098440
C            3.60051818567944       -0.91532277876066       -0.68520232881215
C           -3.48088965195295       -1.23886467376998        0.50938282669966
C           -4.47041031802389       -2.25815153065389        0.56403544142130
C           -3.90771342218586       -3.40895979321905       -0.08443456519222
C           -2.64337287950538       -3.07103664373839       -0.49193075445893
C            5.90623640034135       -1.40404561598744       -1.20327874948757
C            6.04229882542874       -0.06568939496748       -1.62254849164430
C            4.94262525608775        0.84265610376907       -1.53869686520921
C            3.70396616537373        0.44343997880810       -0.95110228212088
C            7.26698293817310        0.38978566237250       -2.15957682362019
C            7.39761575779643        1.65644251144538       -2.65205856239239
C            6.29056206883276        2.51757547812952       -2.65909549691789
C            5.09916351495193        2.11774228579997       -2.11913581650984
C           -3.66172697526166        0.05782421387029        0.96996153339159
C           -4.87714390105216        0.27305316605666        1.68773055098615
C           -5.89239063360902       -0.73222101550691        1.73415079572264
C           -5.68688994260376       -1.99319789854576        1.14162997044660
C           -5.09124302420418        1.45503932637006        2.42571404257977
C           -6.26451231186502        1.68215432289832        3.09099614010793
C           -7.29494951918966        0.73094196409530        3.05904649764214
C           -7.10263714506084       -0.45326202643279        2.40783589571876
C           -4.64374957491220       -4.66310728250360       -0.28798184367296
C           -1.80506100379005       -3.81842820249751       -1.42374079845599
C           -1.66039357484176       -5.19968522635702       -1.32344152692425
C           -0.93060861828513       -5.89772340709818       -2.26805163927284
C           -0.32750455806049       -5.23156959101181       -3.32056732962870
C           -0.47209884626957       -3.85804827959362       -3.43414263383676
C           -1.21103837822098       -3.15770894471547       -2.50232753327174
C           -4.44287566822057       -5.74781131164533        0.55958459434753
C           -5.17057135303167       -6.91142411848350        0.39034098234477
C           -6.11159802057185       -7.00143417286818       -0.62130950522330
C           -6.32509472857660       -5.92161112529338       -1.46112338662174
C           -5.59772199426654       -4.75713167519828       -1.29441608354181
C            4.99209645004800       -4.30470934854700       -0.15820229711911
C            4.72108445471848       -5.50864044716736       -0.79928771087806
C            5.53360251244558       -6.60954829073024       -0.59876430809019
C            6.63439507675364       -6.52216249491573        0.23571905216353
C            6.92490823887821       -5.32197471387150        0.86311862504034
C            6.11275595425016       -4.22167041417172        0.66651988517056
C            1.93610059423584       -3.86207500972090        0.63856804606977
C            1.49122438276603       -3.52612432635387        1.91802911174683
C            0.65463213134310       -4.37572766834818        2.61393024105010
C            0.26080940339945       -5.57883099944412        2.05055157065938
C            0.70295959886926       -5.92217872045176        0.78553229012254
C            1.52945299290660       -5.06734874346741        0.07844495750887
B            2.49236899556735        1.27494625124243       -0.46925261404018
B           -2.53679730212351        1.03632296993325        0.55659700564991
C            3.93700634403744        6.28853668926677        0.12635477779998
C            5.37329553670321        5.77601370831252       -0.01597960823109
C            3.66786545646886        7.26427264341932       -1.02871400321926
C            3.82907599912922        7.02721400800589        1.46791087937085
H            0.08858642286822       -2.79377682757432       -0.28247737142938
H            4.30312545678500        3.58379759974666       -0.16194334463557
H            1.25397693917988        6.55625349648214        0.32599582595608
H           -1.65755839521152        6.44382986119435        0.53981499261394
H           -4.49934709785060        3.23441123654156        0.59251775448963
H           -5.05194038581267        7.64321299377293       -0.49076224374519
H           -3.30428385553193        7.44654547195775       -0.57479570595647
H           -4.35395507833014        6.34056152636425       -1.45754266101392
H           -6.46110324739659        6.14046805334598        0.77482579420498
H           -5.84013551152410        4.70178606301898        1.57535730330651
H           -5.91338198738361        4.77668611787202       -0.19265416881365
H           -4.15393964619378        6.11368166069932        2.83216937147040
H           -3.17468523176561        7.30195495714179        1.97580461096560
H           -4.92071717075212        7.51311496626553        2.07535388638420
H            6.75233691252956       -2.07393585848662       -1.25696312523551
H            8.09913159028365       -0.29987131790689       -2.19158035878219
H            8.33881189301828        1.99113827333482       -3.06323933246509
H            6.38379213195730        3.49655932975379       -3.10746116999123
H            4.23719849519835        2.76365625514820       -2.16839569397289
H           -6.46860455523489       -2.73870782748498        1.16888850425262
H           -4.28584447697901        2.16901128370982        2.48872137465603
H           -6.40143263096880        2.59261494020239        3.65703269454245
H           -8.22404047401849        0.93025939779648        3.57290019459580
H           -7.87150095254398       -1.21347942973442        2.41193279078231
H           -2.11702957530652       -5.72468728772950       -0.50030829519482
H           -0.83282842294833       -6.97010354853893       -2.18195423931959
H            0.24544836897465       -5.77882493066220       -4.05461774914623
H           -0.01315682933805       -3.33138544670424       -4.25819497421086
H           -1.33688133034107       -2.09017550987692       -2.61059601761499
H           -3.72064604445876       -5.66842303922335        1.36079621200340
H           -5.00738940961543       -7.74944292836947        1.05279908735691
H           -6.68150725986183       -7.90967759326873       -0.75099653501361
H           -7.06256998208083       -5.98642112994478       -2.24798486079459
H           -5.76239031376303       -3.91192930802600       -1.94726403395796
H            3.88532833614338       -5.57602288739518       -1.47825153242082
H            5.30947473288386       -7.53950499539449       -1.10127273780100
H            7.26744752719569       -7.38327630690269        0.39166630241771
H            7.78756988173064       -5.24459463544459        1.50919648514376
H            6.33396982825810       -3.28783690825747        1.16342235208161
H            1.80374848258077       -2.59044464202702        2.35949057177071
H            0.31026301064462       -4.10080044764756        3.60013572871123
H           -0.39083629184945       -6.24460758736924        2.59705363815604
H            0.39838242047381       -6.85767265607761        0.34122816712024
H            1.82932815263888       -5.32058775267084       -0.92598935766922
H            6.06150336542288        6.61836432053158        0.02341001900723
H            5.63056864297180        5.09583917370679        0.79261383981606
H            5.51886918842151        5.26812620049410       -0.96635326367276
H            4.41460035647794        8.05569062281001       -1.03326542451236
H            2.68745095613215        7.72448389626632       -0.94240199985185
H            3.71500306790471        6.74016600380801       -1.98120061956741
H            3.99739117236853        6.33560600070923        2.29094290486303
H            4.57563733274556        7.81695375951461        1.52272933892028
H            2.84911902129721        7.47805695505597        1.59781282006590
