132
energy: -196.940681671958 gnorm: 0.003954048944 xtb: 6.7.1 (edcfbbe)
C           -1.26185003756870        0.35575712830739        0.14252598534211
C           -1.19030218546784       -1.04125168907218       -0.05081080778830
C            0.03421266698187       -1.68906704019865       -0.17301279303509
C            1.22147973467782       -0.96367957264707       -0.19623089541841
C            1.21439772796365        0.44888229903004       -0.19261665352744
C           -0.04251199984151        1.04580518820949        0.01798670076402
N           -0.08128173749972        2.39903701721392        0.11573092043928
N           -2.39235950197859       -1.72461754257950       -0.06377476483452
N            2.45835908692713       -1.57656051294262       -0.25756439646884
C            1.00375782154892        3.22831451597155        0.06045183433760
C            0.58102095182982        4.56510829212383        0.21860741406669
C           -0.86571042669160        4.51541899011513        0.33325878731355
C           -1.21152852082603        3.14813952993711        0.29232778199870
C            2.31991478217192        2.81814574692432       -0.13136542262253
C            3.25700000129869        3.85691909146295       -0.01479076067762
C            2.89969551892717        5.18858022279529        0.17024446362483
C            1.54804084094206        5.54886926007231        0.25406672990892
C           -1.88569265814051        5.43723609736985        0.45242091747294
C           -3.21401295110587        4.99280334931302        0.49696585905797
C           -3.49455235538426        3.63011849896281        0.48588321331174
C           -2.49968778961260        2.64047760316197        0.43501727169366
C           -4.31673505488714        6.04184286769108        0.58013556031264
C           -4.22309875549124        6.97044057480526       -0.63907762819653
C           -5.72186867862605        5.43337032930115        0.60272176791590
C           -4.13246926475643        6.85536228148049        1.86962932887319
C            2.80992835437975       -2.91553312636550       -0.07386385162823
C            4.11526898241968       -3.10162194412343       -0.44246410565476
C            4.62855109695972       -1.82614501709653       -0.85574620158842
C            3.56505025505558       -0.89446356107211       -0.70082825537627
C           -3.51306368949268       -1.18722900648792        0.52546493062459
C           -4.50876187654246       -2.20107013783915        0.59663953765883
C           -3.95166789845463       -3.36111768956112       -0.04449554912880
C           -2.67748274353409       -3.03421835787771       -0.43850849531934
C            5.85204759587802       -1.39489340771401       -1.30302873161688
C            5.99512102874581       -0.04566217793575       -1.68143039401883
C            4.90677818473449        0.87024733710776       -1.54564888076342
C            3.67748340372420        0.46806711013619       -0.94088257005970
C            7.21332073734526        0.41381961492155       -2.22981965859226
C            7.34786973585322        1.69449984640467       -2.68321497148100
C            6.25071891404098        2.56726625338457       -2.63719956673246
C            5.06606529389492        2.16235557857264       -2.08657033428437
C           -3.69087837706253        0.12085826781109        0.95362070887059
C           -4.90469826891049        0.35869524523673        1.66684891027642
C           -5.92588074840592       -0.63842426780197        1.72899868755003
C           -5.72878531849645       -1.90918075991756        1.15369226908213
C           -5.11154596060630        1.55590406648909        2.38169959105430
C           -6.28250394422991        1.80112132076697        3.04455065866858
C           -7.31787850846118        0.85485761203914        3.03098301804237
C           -7.13392475547434       -0.34091213875658        2.39845828244363
C           -4.65887907935710       -4.61665291738483       -0.27371392117082
C           -1.79301953429729       -3.87961587818118       -1.23502381374471
C           -1.63057865148655       -5.22433456401306       -0.90831783795380
C           -0.86730169495900       -6.05028456200516       -1.71069594454471
C           -0.24414963961164       -5.54546026312275       -2.83956468872000
C           -0.39428160924203       -4.20794103401342       -3.16857567729307
C           -1.17044666874758       -3.38089118415090       -2.38010682477428
C           -5.31607352159813       -5.24770962965125        0.77950770503150
C           -5.99574566092158       -6.43391847084611        0.57340105986308
C           -6.03840132736244       -7.00041417554300       -0.68969513861044
C           -5.39516602322134       -6.37424000662670       -1.74593186232645
C           -4.71035930003690       -5.19246602956069       -1.54340042091956
C            4.91424132232008       -4.33211046946627       -0.37429304961217
C            4.87154361647038       -5.26751797712981       -1.40279209187134
C            5.65152792306492       -6.40762698934026       -1.34364342702236
C            6.48845723154108       -6.62136154413005       -0.26102698148563
C            6.54191049588111       -5.69099714660168        0.76258086977892
C            5.76041882475522       -4.55135464773805        0.70659755793459
C            1.97534313932291       -3.88566198589301        0.63077920896502
C            1.36275231208875       -3.52037865429155        1.83228397407167
C            0.62014174366000       -4.43713847189608        2.54682555407304
C            0.49110162644659       -5.73894679200554        2.08663070932655
C            1.11577939054321       -6.11482430613538        0.91129846443018
C            1.85105200215217       -5.19648499816498        0.18284040474336
B            2.47665326088721        1.30052753260841       -0.43590498092919
B           -2.56348957056742        1.08885425535032        0.52441979417780
C            3.94315176715428        6.29436796516580        0.27401672585820
C            5.38013266986600        5.77108728029855        0.19075029464257
C            3.73380210372522        7.28823836744332       -0.87776135191485
C            3.77876630111503        7.01446040355392        1.62013440293610
H            0.06430459599664       -2.76132999246016       -0.24412324440998
H            4.29936748591733        3.59049134396876       -0.05445126661051
H            1.25841542691355        6.58230044838271        0.36759909843732
H           -1.65451531239016        6.49070651401827        0.49228370953024
H           -4.51982358268919        3.30131995458593        0.50116589920742
H           -5.01767363348539        7.71325914333114       -0.60716907929720
H           -3.27174876977306        7.49428890879405       -0.67055758477605
H           -4.32536175150641        6.39531736871853       -1.55719218138719
H           -6.45940408794746        6.23223694585389        0.65418777931678
H           -5.86077470290598        4.79226801678643        1.46998900866573
H           -5.91513563253458        4.85724954545191       -0.29919974760767
H           -4.16685085267630        6.19779654457925        2.73590460406554
H           -3.18044764019742        7.37905509093753        1.87830876736940
H           -4.92624598947872        7.59341270577834        1.96465809051379
H            6.68653508267480       -2.07547529668556       -1.39183969098700
H            8.03609078145285       -0.28400098714251       -2.30141242508874
H            8.28349244614875        2.03311254617373       -3.10362545395219
H            6.34641259125058        3.56034914362881       -3.05290427121380
H            4.21195630776655        2.82012776247862       -2.09419007648361
H           -6.52429267896999       -2.63971711093406        1.17996590878741
H           -4.30322679418109        2.26776180739526        2.42932137465299
H           -6.41427324341299        2.72232105620890        3.59427143013130
H           -8.24439250514702        1.06846275493564        3.54379465606475
H           -7.90800199736745       -1.09570098421726        2.41607035027019
H           -2.10306887691056       -5.61499516488831       -0.01970685338965
H           -0.75935989035772       -7.09359894262739       -1.45479546959976
H            0.35390627354806       -6.19116197936501       -3.46568635112797
H            0.08757584964234       -3.80903284809799       -4.04944952054922
H           -1.30083590025799       -2.34235546146689       -2.64999991654976
H           -5.26809853381824       -4.81194044237633        1.76874464076556
H           -6.49153025922079       -6.91953097281173        1.40307831908477
H           -6.57174216464706       -7.92569795016597       -0.85054426481811
H           -5.43326910993565       -6.81014587695514       -2.73486043119191
H           -4.21412312348975       -4.70262170890169       -2.36846371607595
H            4.23036768799662       -5.09004974748472       -2.25543044843630
H            5.61012285796766       -7.13145141838494       -2.14518230976808
H            7.10118366909033       -7.50984364195201       -0.21836363963956
H            7.19623968586112       -5.85306297928063        1.60703506815110
H            5.79908297570815       -3.82261742271584        1.50366707380053
H            1.47853779588774       -2.51049978180606        2.20008923762491
H            0.14682659232060       -4.13946475091043        3.47082648525259
H           -0.09079230469070       -6.45620631214012        2.64668111820769
H            1.03207582509466       -7.13136966045362        0.55662061970047
H            2.31973855072301       -5.49404019610867       -0.74152410159815
H            6.07289839629947        6.60613029084555        0.27808022510519
H            5.59201326610038        5.07422692286238        0.99848571649407
H            5.56621918499189        5.27856295268307       -0.76087488596006
H            4.48974946546881        8.06990891874716       -0.84059612819730
H            2.75639980074792        7.75952292571374       -0.82488560491586
H            3.81365993569577        6.77601653420904       -1.83443171274985
H            3.88998271124374        6.30707776788296        2.43946103390708
H            4.53573086962415        7.78863050872861        1.72739614947000
H            2.80197106756861        7.48242091296425        1.70586985639349
