132
energy: -196.941316393624 gnorm: 0.006763341546 xtb: 6.7.1 (edcfbbe)
C           -1.24895317320262        0.35090773885913        0.19951784923165
C           -1.18376555843444       -1.04436087240049       -0.00733229915250
C            0.04016494760662       -1.69158374007088       -0.14325573555374
C            1.22910651841553       -0.96826968232100       -0.16124208818565
C            1.22476771015088        0.44402423858252       -0.14536212467784
C           -0.02946479389685        1.04140977191876        0.07606669671069
N           -0.06839093972925        2.39434446637734        0.18031026246175
N           -2.39080840756510       -1.72147779536330       -0.02892287231271
N            2.46604801605851       -1.58286573572582       -0.23278530253552
C            1.01576251183948        3.22503284997236        0.11490332317980
C            0.59186428487443        4.56244752601767        0.26869887898081
C           -0.85548704234187        4.51234268983510        0.38914044053421
C           -1.19775800721127        3.14414043518756        0.35522405420000
C            2.32995905782781        2.81425318915755       -0.08864908256787
C            3.26675987146672        3.85576784571206        0.01112003966905
C            2.90923254271587        5.18831963982596        0.18796812894839
C            1.55799801408327        5.54746434124938        0.28690314046292
C           -1.87995964357279        5.43111082517816        0.49953008459846
C           -3.20788413055564        4.98351273418833        0.54412555526271
C           -3.48378278350400        3.62043549605313        0.53913568861555
C           -2.48527348012973        2.63568264524145        0.49514887673901
C           -4.31861559900547        6.02485791003037        0.61573303207383
C           -4.22948089417751        6.94315974705624       -0.61177621160776
C           -5.71984162293769        5.40614099818084        0.63946829738859
C           -4.14590410993582        6.85184587607144        1.89802130529569
C            2.82622477909864       -2.91981046228636       -0.05056759742894
C            4.12244675910786       -3.10324487303913       -0.45608546065000
C            4.62156705761440       -1.83197513239182       -0.89255455077157
C            3.56290144486032       -0.90005318948062       -0.70487674319635
C           -3.52085897722299       -1.17600983737164        0.53518433579876
C           -4.53267313577558       -2.17531286900434        0.56391404789608
C           -3.96894621345023       -3.34117045099083       -0.06106012882521
C           -2.68047564912582       -3.02583586586284       -0.41598605363119
C            5.83290935971007       -1.39763173245110       -1.37167855040301
C            5.96594941427325       -0.04774579424935       -1.74859593040956
C            4.88402164739286        0.86963442349963       -1.57331450943264
C            3.67145346560465        0.46437619569304       -0.93657266720371
C            7.16696894936720        0.41528039897157       -2.33325040238920
C            7.28802869549284        1.69797622347837       -2.78370476820035
C            6.19551837436262        2.57353603295389       -2.69421959118158
C            5.02944382591166        2.16633483603410       -2.10680409740450
C           -3.69133672770254        0.12771806737601        0.97768595847188
C           -4.92209725382314        0.37855186175622        1.65453001101247
C           -5.96636645518065       -0.59515702125688        1.65328220491513
C           -5.76966478378827       -1.86224848813402        1.07110291727478
C           -5.12696179618080        1.56479535238244        2.38819055584590
C           -6.32172404577835        1.82980836087725        2.99865406527489
C           -7.38029223466924        0.91453154741693        2.91143703252356
C           -7.19736252707032       -0.27586482315590        2.26840140948536
C           -4.68608245823435       -4.58986983646136       -0.30155646602410
C           -1.77113189952145       -3.87262186127192       -1.18616949696613
C           -1.55294439977168       -5.19311453645235       -0.80412527068470
C           -0.74513872730121       -6.01432750567818       -1.56840625829257
C           -0.13926844847980       -5.52771840813683       -2.71391135179332
C           -0.35409770869873       -4.21508932727512       -3.10199046080431
C           -1.17033071998502       -3.39256846318455       -2.35091812095375
C           -5.45278380659934       -5.15382688117549        0.71643467326121
C           -6.14530604859634       -6.33153488935693        0.50192410377846
C           -6.08113566348450       -6.96173100070722       -0.72900808270822
C           -5.32390905802018       -6.40628668144549       -1.74700189099782
C           -4.63072581563143       -5.22900831428808       -1.53728503467844
C            4.91527943910379       -4.34000962025535       -0.39824065017833
C            5.03387822923617       -5.15497683792712       -1.51922190777271
C            5.79151244066117       -6.31028552009744       -1.46455899193258
C            6.44829948249216       -6.65700284716563       -0.29561413233730
C            6.34201268337589       -5.84490673400444        0.81979916724483
C            5.57773580377099       -4.69252644163400        0.77013668313554
C            2.01392883514647       -3.90756974766657        0.65301877148910
C            1.32013814237802       -3.54344815369097        1.80928437151556
C            0.59836216210858       -4.48262614639810        2.51930738127454
C            0.58200006771102       -5.80484205402228        2.10859848339413
C            1.28656656605263       -6.17998397025073        0.97794824502977
C            1.99072517424387       -5.23918252950668        0.24901932144205
B            2.48423665228228        1.29717679701864       -0.39906633941231
B           -2.54894027435758        1.08605694983289        0.57900171903882
C            3.95213189232424        6.29789681184830        0.25874191054541
C            5.38863864584565        5.77875142893436        0.15199695749756
C            3.71552262946385        7.27667842871055       -0.90056487278199
C            3.81458681068002        7.03400588688817        1.59946780168877
H            0.07068152054071       -2.76242388971127       -0.22792614697140
H            4.30925978739061        3.59123584559350       -0.03730387098592
H            1.26778959014426        6.58123598066341        0.39616992180737
H           -1.65294937931930        6.48586118889729        0.53101469783232
H           -4.50736533918891        3.28668949164812        0.55289003578549
H           -5.03398030235398        7.67564096398348       -0.59092537955220
H           -3.28464094869256        7.47871869924447       -0.64190716165435
H           -4.31920265601094        6.35828143519514       -1.52501361009577
H           -6.46236776006432        6.20050598159613        0.68794259699878
H           -5.85585688243332        4.76694419546595        1.50865237722622
H           -5.90901911160527        4.82565836540141       -0.26046607320926
H           -4.20018589130555        6.20527441970882        2.77171668500038
H           -3.18915464237811        7.36622522503928        1.91468334371638
H           -4.93431971755089        7.59830737072274        1.97190091057987
H            6.66592554925296       -2.07636634764987       -1.48733477177421
H            7.98761676685696       -0.28149087127258       -2.43567991846151
H            8.21000440847729        2.03661524861817       -3.23439096343371
H            6.27833530898475        3.56993999572269       -3.10462407917147
H            4.17727077350888        2.82619125308915       -2.07851280181733
H           -6.58496185043946       -2.57028711627581        1.05025041080412
H           -4.30018952687499        2.24884406661748        2.49101976841073
H           -6.45420501620127        2.74250872439301        3.56207508978212
H           -8.32638302353701        1.14513518402765        3.37850739504585
H           -7.99148567893542       -1.00822704039789        2.23575662122666
H           -2.01619867816432       -5.56465697850353        0.09741304558245
H           -0.58987499366198       -7.03878136393884       -1.26636240770337
H            0.49493784630472       -6.17286168350701       -3.30382169270839
H            0.11103230937244       -3.83335672889640       -3.99957158815461
H           -1.34615017014262       -2.37274603921763       -2.66321992863512
H           -5.49005753908993       -4.67702182062823        1.68362832995528
H           -6.73630469734084       -6.75757192520317        1.29823832827930
H           -6.62090225574693       -7.88189598187144       -0.89906517514655
H           -5.26597114350882       -6.89749874002294       -2.71089250296600
H           -4.04433922887657       -4.79548161699669       -2.33565365016396
H            4.52256255740841       -4.87931448656497       -2.43143846166904
H            5.87173553507946       -6.94174878912386       -2.33761716472199
H            7.04148653871352       -7.55874030467356       -0.25486074452537
H            6.85728049295656       -6.10832007329562        1.73181533701825
H            5.49153810706737       -4.05823102498679        1.63984526226203
H            1.34961390911777       -2.51850143033110        2.14793409362667
H            0.05317483376830       -4.18397929472211        3.40345077400434
H            0.02318918808297       -6.53796323705278        2.67266111838283
H            1.28804605813879       -7.21115633311609        0.65933142924395
H            2.51830372185686       -5.53832842291829       -0.64331219745732
H            6.07893531833892        6.61797598398071        0.20219056049280
H            5.62364915309596        5.10305018058691        0.97047844054486
H            5.55488108309131        5.26430308012918       -0.79076693127202
H            4.45101223552439        8.07814676354629       -0.87238457897959
H            2.72599573780084        7.72315899129837       -0.85066917836190
H            3.80625870936923        6.75822422109821       -1.85332508933535
H            3.96066564988671        6.33932573560628        2.42386849787420
H            4.56261167357761        7.82043177540941        1.67417797573753
H            2.83364417969402        7.48818727881288        1.70729133396389
