132
energy: -196.941789940356 gnorm: 0.006189359147 xtb: 6.7.1 (edcfbbe)
C           -1.24906202749752        0.35212623634341        0.21431991851445
C           -1.18214555011940       -1.04368643938696        0.00472096827650
C            0.04376793989178       -1.68868155805098       -0.12690546416899
C            1.23240151349275       -0.96492937317510       -0.13701436854614
C            1.22698451390625        0.44727346301608       -0.12363454893753
C           -0.02867698580842        1.04270985739982        0.09487601615237
N           -0.06485985448952        2.39594859189151        0.19579037612244
N           -2.38770297606749       -1.72213946058392       -0.02654524355187
N            2.47148326327635       -1.57583600239280       -0.20529345977028
C            1.02026073935202        3.22511035843908        0.13086438670935
C            0.59833617348349        4.56233914243442        0.28850102600117
C           -0.84737880194149        4.51391533605830        0.41476364322958
C           -1.19283768211335        3.14671307651762        0.37662821250421
C            2.33444450132364        2.81644196142042       -0.07751093861790
C            3.27162053916059        3.85790790991099        0.01554057841997
C            2.91448126802215        5.19055707397357        0.19342897811339
C            1.56371010221852        5.54798271631686        0.30135012570297
C           -1.86815796065016        5.43567715586701        0.53064610104487
C           -3.19623358657160        4.99010059416246        0.57214423768487
C           -3.47577230573074        3.62773941408224        0.56175422755083
C           -2.48072186387476        2.63902604121559        0.51455702073470
C           -4.30380984406869        6.03476452493241        0.63644587624511
C           -4.20369397794093        6.94356083415166       -0.59705108047711
C           -5.70579813697475        5.41872463374869        0.65677168958819
C           -4.13540256689015        6.86832402602436        1.91480489148463
C            2.83213010214963       -2.91271279743643       -0.02384354251298
C            4.11863101780158       -3.10346796462837       -0.45687504383418
C            4.61176650958945       -1.83252869961600       -0.90574799740131
C            3.56081528372492       -0.89632690384835       -0.69674426190430
C           -3.52294499626915       -1.17468394858109        0.52603131823608
C           -4.53819689124219       -2.17088592099568        0.54397536502112
C           -3.97076828247157       -3.33951753734999       -0.07355689208910
C           -2.67703051077346       -3.02888373177512       -0.41237719520071
C            5.81356549105092       -1.40274252617380       -1.41073130495313
C            5.94448529608329       -0.05129416804893       -1.78659973881041
C            4.86903020951314        0.86918113551536       -1.59115548857743
C            3.66674952359276        0.46651113111027       -0.93480342575618
C            7.13676813966692        0.40737660440054       -2.38854537054965
C            7.25682887600466        1.69198604115997       -2.83572580920424
C            6.16930729531819        2.57057900787332       -2.72770818109608
C            5.01054118459617        2.16617354088592       -2.12448304563925
C           -3.69950306965960        0.12844644220650        0.96935967732361
C           -4.93818824870315        0.37738842778568        1.63370530250033
C           -5.98500627758725       -0.59384029844223        1.61894143969403
C           -5.78222512024128       -1.85947790679434        1.03431071151502
C           -5.15206941658488        1.56040629988678        2.37000517419664
C           -6.35329010523531        1.82385318103128        2.96851267103840
C           -7.41282965908832        0.90958354288351        2.86878400601602
C           -7.22272828238731       -0.27815050130052        2.22270081664700
C           -4.68019341307641       -4.58930954480817       -0.31647709644206
C           -1.76132905122081       -3.88904180430194       -1.15846055616399
C           -1.54856190934702       -5.20684930334687       -0.76110643652700
C           -0.73297397693550       -6.03517367481277       -1.50736706776620
C           -0.11304211793790       -5.55910105360528       -2.65075866568981
C           -0.32278042728024       -4.25124679810105       -3.05588872493047
C           -1.14869784051456       -3.42250969038948       -2.32162249938060
C           -5.45698717954060       -5.15311054472456        0.69625485664949
C           -6.15617377002817       -6.32324854796317        0.47448834300695
C           -6.09118935853840       -6.95279468496095       -0.75894870077265
C           -5.31867390010547       -6.40372287013633       -1.76847298592954
C           -4.61894715969804       -5.23213928540476       -1.55121990309456
C            4.91408166633346       -4.33737995212908       -0.40744145204994
C            5.11793139893402       -5.09319426207193       -1.55953770128720
C            5.87005278608700       -6.25318785639358       -1.51139625034567
C            6.43859529484884       -6.66262515852971       -0.31573046045507
C            6.25359636210850       -5.90633827832418        0.83155624486898
C            5.49311608481016       -4.75241567332581        0.78900187711296
C            2.02018741404209       -3.89349364232298        0.68684050681539
C            1.30929204500648       -3.53878496829605        1.83472300270318
C            0.59037692045509       -4.48682479894980        2.53449648379382
C            0.59286120003915       -5.80964254906319        2.12189180381597
C            1.31860829883846       -6.17582957044432        1.00208524717912
C            2.01877354973214       -5.22728998425915        0.28175448395040
B            2.48514947569098        1.29911608916872       -0.38537518212828
B           -2.55032904393772        1.08821361161359        0.58846422225922
C            3.95442152982344        6.30270198693438        0.25454385243244
C            5.39211772463982        5.78609828906906        0.14235702492655
C            3.70989179794730        7.27502796801195       -0.90862131321102
C            3.82081513741627        7.04544785433942        1.59139692819554
H            0.07760206204445       -2.75910834694664       -0.21795482847167
H            4.31403283986751        3.59359883955687       -0.04030737571846
H            1.27308612922745        6.58138128964237        0.41212096924390
H           -1.63844740782458        6.48960211109199        0.56746826798810
H           -4.50026453559478        3.29804047024168        0.57213292062602
H           -5.00911078853673        7.67505774571035       -0.59229875866597
H           -3.25917797473689        7.47979443672183       -0.62195080171071
H           -4.28198327939151        6.35005313493243       -1.50578296163500
H           -6.44842396001044        6.21343353138306        0.69931786523462
H           -5.84520833816821        4.78261785629440        1.52758684792502
H           -5.89155856319333        4.83521456859019       -0.24208177077542
H           -4.18143687594838        6.22471544396209        2.79091969283090
H           -3.18344595028720        7.39233403671684        1.92779950370101
H           -4.93038960803632        7.60763632674136        1.98746551418813
H            6.64091247397235       -2.08463769417014       -1.54597278409765
H            7.95253946194130       -0.29208407915683       -2.50646463499633
H            8.17305224490929        2.02869226612159       -3.29721293177005
H            6.25023638132485        3.56750937381338       -3.13672762946711
H            4.16207494997384        2.82951330241919       -2.08214837817634
H           -6.59500721796700       -2.57014369880587        0.99998300942203
H           -4.32701848008692        2.24500006693424        2.48670895606276
H           -6.49141154208991        2.73504762027147        3.53343196827389
H           -8.36338994051322        1.13826962542380        3.32852713387062
H           -8.01523834701630       -1.01305276896287        2.17873488476085
H           -2.02051614836150       -5.57317310454426        0.13817878433268
H           -0.57961605190119       -7.05697926740460       -1.19541068603260
H            0.52919963828243       -6.20593629829086       -3.22969631172306
H            0.15288607466966       -3.87739117243747       -3.95060121347491
H           -1.32491783083773       -2.40611034351214       -2.64347316220488
H           -5.49439176465613       -4.67078024676212        1.66200441188764
H           -6.75783735498173       -6.74995517890639        1.26567433938968
H           -6.64538144237690       -7.86380720415119       -0.93092453448211
H           -5.26845763061845       -6.88628743562827       -2.73249422306299
H           -4.03439328239816       -4.79762321204344       -2.34920348588479
H            4.67520786406815       -4.77176473349862       -2.49330420417187
H            6.01148679840615       -6.84106440217832       -2.40885907272428
H            7.02870873531163       -7.56673203394417       -0.28010174807319
H            6.70434269247757       -6.21766799982284        1.76399795780331
H            5.34727119885862       -4.16044597766419        1.68323565897101
H            1.32313779042105       -2.51500417466695        2.18073496275195
H            0.03344016975334       -4.19195575013193        3.41075383571986
H            0.03849712509732       -6.55212537827100        2.67449585801526
H            1.33828637599170       -7.20891118354212        0.68748024301202
H            2.56301000123463       -5.51272708711313       -0.60436494761730
H            6.08202973390966        6.62641648796950        0.20331951597491
H            5.62801065140236        5.09934032367938        0.95242812542852
H            5.55751017358019        5.28401627753314       -0.80866356315289
H            4.45758278783301        8.06549925909209       -0.90038911119377
H            2.72857341893383        7.73626222154056       -0.84325105362400
H            3.77578811073542        6.74767495528330       -1.85801366706946
H            3.95998641430382        6.35399728875209        2.42038498310395
H            4.57450070561507        7.82715032844353        1.66408685268639
H            2.84306727059816        7.50790571713518        1.69556853996316
