132
energy: -196.944589252180 gnorm: 0.001718067518 xtb: 6.7.1 (edcfbbe)
C           -1.24919579372521        0.35161740115772        0.24899310600494
C           -1.17620000174762       -1.04858699893563        0.07576568046836
C            0.05136080700701       -1.69589909220411       -0.03160149094667
C            1.23597727107050       -0.96778729004027       -0.08950359546631
C            1.22228160383445        0.44415881473637       -0.11185332963941
C           -0.03162087954653        1.04226266825058        0.10980070429009
N           -0.07053279219612        2.39704471776882        0.18594483037385
N           -2.38037301454903       -1.72920811939376        0.04332579540279
N            2.47723936819618       -1.57330038392776       -0.17878535557866
C            1.01341092222201        3.22621405436463        0.10532959743771
C            0.59410869095093        4.56477463024201        0.25725148135046
C           -0.85158903469903        4.51686930225915        0.39009225938304
C           -1.19805545524760        3.14928904569478        0.36444574356190
C            2.32473710628264        2.81487920387127       -0.11286775578540
C            3.26531353085983        3.85333861570680       -0.02828250310258
C            2.91293623437536        5.18596100450226        0.15828754660211
C            1.56321089779497        5.54738150303144        0.26819108329167
C           -1.87132806088754        5.43941898663634        0.50758362197350
C           -3.19958884001956        4.99517820361898        0.55952719706412
C           -3.48036446218323        3.63283219393789        0.55517287058012
C           -2.48590998306844        2.64282332151254        0.51126928764563
C           -4.30392468065209        6.04243767585194        0.64348664417255
C           -4.21259785313115        6.97376288419308       -0.57372164137282
C           -5.70829244504590        5.43168822592266        0.66453888769238
C           -4.12094249418759        6.85316401101877        1.93485650042348
C            2.84918846329816       -2.90072696075385        0.01934962104940
C            4.13020676391637       -3.09610018193536       -0.43573809715018
C            4.60252046446699       -1.83132972851153       -0.92924606522373
C            3.55114169673780       -0.89826916321827       -0.71215581769639
C           -3.52489850379063       -1.17236017491106        0.56523772859597
C           -4.54650527413074       -2.16295420009897        0.56257640029002
C           -3.97288789810310       -3.33396089558335       -0.04333729180762
C           -2.66823383688517       -3.03321189778475       -0.34896643064959
C            5.79192845641667       -1.39740250952434       -1.45966920883503
C            5.90641599798619       -0.05244050307395       -1.86146271711568
C            4.83009391879010        0.86442549169581       -1.65775466621601
C            3.64501035346669        0.46174827849323       -0.97162608340523
C            7.08626684754703        0.40484545774679       -2.49017573298242
C            7.19451448023005        1.68681711737760       -2.94677045761950
C            6.10605222444745        2.56312914945003       -2.82491467288100
C            4.95730295392868        2.15844923098175       -2.20274909301938
C           -3.70386404692307        0.13597646781207        0.99195636981496
C           -4.95222561508260        0.39274368031925        1.63514143545945
C           -6.00248450256508       -0.57454563305256        1.60738174129418
C           -5.79746128437990       -1.84240807776585        1.02850635177612
C           -5.16863905567424        1.57807944827330        2.36640736304880
C           -6.37475759427843        1.84592178926036        2.95352599531754
C           -7.43675735975034        0.93665423549013        2.84039084469822
C           -7.24616344647160       -0.25100680333205        2.19441493307485
C           -4.68534171854250       -4.57505523548183       -0.32923264568780
C           -1.75018894756350       -3.90278447933745       -1.08125152675326
C           -1.59723664121918       -5.23452228254845       -0.70382957990090
C           -0.80453282296784       -6.08372670693791       -1.45210243827892
C           -0.14172100955451       -5.61378443921350       -2.57295776959784
C           -0.28343297435750       -4.28860309856627       -2.95167569311267
C           -1.09023933829058       -3.43958021008298       -2.21999873937322
C           -5.47979915316940       -5.16702447215058        0.65092296821642
C           -6.16159799865603       -6.34018314040308        0.38755497938700
C           -6.06287261801899       -6.93873600027643       -0.85725120762339
C           -5.28015825386374       -6.35437836585746       -1.83969686093804
C           -4.59836378087988       -5.18095783760958       -1.58128070043141
C            4.92137576947976       -4.32190442296782       -0.38514017115740
C            5.60268708634528       -4.75604072387022       -1.52051544275723
C            6.36339684233682       -5.90978177430507       -1.48370166317708
C            6.45866280374822       -6.64412752400743       -0.31335694411325
C            5.79048923206210       -6.21544154741489        0.82296419961732
C            5.02895746639046       -5.06325128115044        0.79032376755812
C            2.04366636327469       -3.88943397544557        0.72949271394008
C            1.43186491341920       -3.56790415782991        1.94168028847284
C            0.74487776743327       -4.53210001521688        2.65345293640163
C            0.67514295058225       -5.83150428787435        2.17918121063787
C            1.28911691997642       -6.16093701235583        0.98249891067912
C            1.96222280758997       -5.19758457084206        0.25652387617623
B            2.47215380726709        1.29606278343655       -0.40914333314401
B           -2.55342028180533        1.09215749556004        0.60650214009632
C            3.96030717729838        6.29033366845600        0.23778005154853
C            5.39455528561048        5.76427127565965        0.12889643838653
C            3.73169501083165        7.28245053237044       -0.91146216766286
C            3.82321088974788        7.01300423203365        1.58583066277996
H            0.08482851064645       -2.76940934178160       -0.07881643793311
H            4.30593778575008        3.58524716387373       -0.09528689619176
H            1.27664658016288        6.58181183191372        0.38129264859120
H           -1.64034545614855        6.49320484779842        0.53926961343493
H           -4.50550201430332        3.30459815828792        0.57011768003722
H           -5.00787652902045        7.71562709341927       -0.53896746147928
H           -3.26193847463163        7.49865172841405       -0.60545297966100
H           -4.31578420907410        6.40034686324540       -1.49275919048095
H           -6.44676516500730        6.22933768018175        0.71969594164723
H           -5.84625643303310        4.78686029392114        1.52908183530841
H           -5.90110054630788        4.85875616540712       -0.23951036198518
H           -4.16190114929367        6.19450259658939        2.80006661003675
H           -3.16642547479314        7.37205664295300        1.94783503733962
H           -4.91180155392055        7.59466009297858        2.02804732174849
H            6.62768546960737       -2.06925433275387       -1.59136115320086
H            7.90137987003218       -0.29397866606216       -2.61807845125848
H            8.10235362869584        2.02439865636015       -3.42512464182013
H            6.17872180524775        3.55919231674338       -3.23809615168427
H            4.10754870741665        2.81982827908760       -2.15079280885890
H           -6.61406068888491       -2.54786282174790        0.98043960756214
H           -4.34160712138437        2.25880615627343        2.49067064547966
H           -6.51448715838616        2.75612584969956        3.51929566249010
H           -8.39074759972933        1.17006967444535        3.29037328500942
H           -8.04310120820328       -0.97979238191426        2.13974510198608
H           -2.10240552436115       -5.59737720083596        0.17858840274338
H           -0.70544536635346       -7.11835036351657       -1.16023463952051
H            0.48111008762422       -6.27798937962622       -3.15343537168563
H            0.22816689043203       -3.91725310066022       -3.82752805465192
H           -1.21707115948401       -2.41148309276500       -2.52838305793467
H           -5.54192515863331       -4.71017740822774        1.62839825449020
H           -6.77038248285353       -6.79184113454842        1.15732710428874
H           -6.59521700599205       -7.85608425977984       -1.06169800290490
H           -5.20358154398663       -6.81490942400632       -2.81421600795327
H           -4.00056656234958       -4.72155043248064       -2.35396231994495
H            5.51637751109647       -4.19254755904344       -2.43896612939125
H            6.88220058512071       -6.23946915216435       -2.37268345848782
H            7.05296268464305       -7.54551858845990       -0.28569971673547
H            5.86738384485057       -6.78060510243949        1.74042618290890
H            4.51866871426343       -4.72490172849196        1.68062779804403
H            1.50349297962090       -2.56015187319277        2.32545855475882
H            0.27195915910049       -4.27092191231953        3.58887408961400
H            0.14748532843544       -6.58609834330026        2.74354001598221
H            1.24730330182506       -7.17508331443645        0.61450504215117
H            2.42855650895284       -5.45069168644205       -0.68348228209311
H            6.09017924692550        6.59793450510522        0.20251070026789
H            5.61984675318847        5.06837928244028        0.93347624212612
H            5.56296717673151        5.27023597783692       -0.82499086903718
H            4.47405251839257        8.07690803785843       -0.87414563635898
H            2.74626709804796        7.73645997566816       -0.85647264972795
H            3.81879115600486        6.77338843925773       -1.86911207263336
H            3.95219169227571        6.30693543333383        2.40364902119109
H            4.58187912449281        7.78761109499309        1.67601221244068
H            2.84814846718184        7.48034713999123        1.69105431549341
