132
energy: -196.944423938772 gnorm: 0.003347665579 xtb: 6.7.1 (edcfbbe)
C           -1.25042605625292        0.35212360250942        0.24578416443749
C           -1.17970545123905       -1.04771544886345        0.07015929842896
C            0.04736521322130       -1.69667510290800       -0.03504582743606
C            1.23225469868764       -0.96903022493289       -0.08980030826419
C            1.22153850962543        0.44291167177003       -0.10711290561299
C           -0.03177066258490        1.04217397445032        0.11318046480417
N           -0.07018504790249        2.39666325890072        0.19418371960716
N           -2.38544115526542       -1.72534649833579        0.03426959654045
N            2.47269320520196       -1.57635841160982       -0.18093222072258
C            1.01462553094856        3.22531604001235        0.11704365274004
C            0.59503839529318        4.56425369058101        0.26605570248188
C           -0.85168348047535        4.51719260156860        0.39268493443504
C           -1.19792139335240        3.14949528515437        0.36625918223118
C            2.32607193743259        2.81250361511583       -0.09813979186716
C            3.26692164858184        3.85071556003651       -0.01172351922291
C            2.91463015592440        5.18395938180321        0.17011476393905
C            1.56463684598867        5.54651100508246        0.27645483786141
C           -1.87280897900126        5.43888421126041        0.50713454942410
C           -3.20142416104475        4.99427126815189        0.55606462627505
C           -3.48174363323267        3.63194940363820        0.54805574544647
C           -2.48634981704786        2.64327726122163        0.50699112023351
C           -4.30726877660763        6.03946218764006        0.64369538584070
C           -4.22275258936971        6.97184167905166       -0.57301812494975
C           -5.71093207515958        5.42689560331896        0.67032484413740
C           -4.12126752269721        6.84909456487617        1.93534771093655
C            2.84382562855544       -2.90439447149843        0.01277716490467
C            4.12106131801536       -3.10005341948129       -0.45198481971288
C            4.59276999386901       -1.83618371773665       -0.94466793145636
C            3.54549461847459       -0.90076791942789       -0.71825643445857
C           -3.52997793426569       -1.16818698985530        0.55611585002569
C           -4.55289885728369       -2.15744212167193        0.55194192880933
C           -3.97961761857231       -3.32809358362510       -0.05498306557401
C           -2.67422612896432       -3.02839828426227       -0.35928531903696
C            5.78209081822616       -1.40430985821401       -1.47726060589148
C            5.90132147168388       -0.05653839719514       -1.86704583162038
C            4.82890246493725        0.86313766283429       -1.65447221613560
C            3.64310054961208        0.46043394998831       -0.96907671744215
C            7.08317974316523        0.40174063597477       -2.49129128050620
C            7.19603631904424        1.68636483080614       -2.93914968643207
C            6.11021425697463        2.56538641066935       -2.81144247736389
C            4.96116347466871        2.16053075236651       -2.19003263579575
C           -3.70587957270853        0.13950335788207        0.98512822679850
C           -4.95279784169120        0.39940099092014        1.62881506002214
C           -6.00492675551730       -0.56532569800695        1.59916843910217
C           -5.80264656641824       -1.83322367426918        1.01918918123203
C           -5.16516661663346        1.58484732137575        2.36124853331595
C           -6.37098945367706        1.85736956851050        2.94600758529586
C           -7.43551163783199        0.95166215265605        2.82987465047245
C           -7.24803642944595       -0.23710786239722        2.18476143294837
C           -4.68888089235925       -4.57264415724318       -0.33480835501255
C           -1.75299046037319       -3.89777700454509       -1.08770563203781
C           -1.59582953468284       -5.22721764669513       -0.70371879521840
C           -0.79247116759536       -6.07511292490526       -1.44169340243131
C           -0.12435878554333       -5.60607301171275       -2.56031064629838
C           -0.27231273161390       -4.28407498560147       -2.94708060976212
C           -1.08902211049716       -3.43602663270413       -2.22475178932938
C           -5.48398279285606       -5.16125514314462        0.64506682172439
C           -6.15608757023643       -6.34240940332492        0.38767427459829
C           -6.04590722350086       -6.95135499903909       -0.85041171106854
C           -5.26528626809591       -6.36746418587748       -1.83492355348064
C           -4.59485225634583       -5.18666560187336       -1.58309758581922
C            4.91296857118560       -4.32648043365437       -0.40070966360125
C            5.53515015265620       -4.80183227492225       -1.55338779406704
C            6.29213506207529       -5.95824947286972       -1.51507857372234
C            6.44921285843491       -6.64623140019668       -0.32263465079454
C            5.84380134555534       -6.17319040375319        0.83151803069788
C            5.07852285739926       -5.02345374978176        0.79481136297474
C            2.04625243036386       -3.89328715609975        0.73084684896503
C            1.42198772448161       -3.56466703494922        1.93564967291486
C            0.73546706562231       -4.52564750441256        2.65072331389939
C            0.67848861769985       -5.83124233068638        2.18874556093691
C            1.30788885552122       -6.16790349453148        1.00293846265333
C            1.98024481740268       -5.20636157755504        0.27245040348624
B            2.47289270700140        1.29456712160628       -0.39967799632915
B           -2.55416842877657        1.09332863707722        0.60108740960294
C            3.96266495704542        6.28804027808518        0.24460866288391
C            5.39676352196250        5.76181987553947        0.13347906118126
C            3.73246994914344        7.27700992159292       -0.90737314957685
C            3.83009713163055        7.01561126305944        1.59023247571151
H            0.08069800059436       -2.77014169439019       -0.08295009153162
H            4.30775666598629        3.58201758372255       -0.07404972862444
H            1.27841508294286        6.58144463475502        0.38574753551257
H           -1.64281266188644        6.49307577042246        0.53904212884006
H           -4.50668475239243        3.30260227431465        0.55871985034393
H           -5.01324036243759        7.71825187265456       -0.52884991361262
H           -3.26915926510985        7.49087271343087       -0.61382499462516
H           -4.33905884797233        6.40038504897954       -1.49160663178527
H           -6.44982876915838        6.22386634921234        0.73119421891372
H           -5.84395840208429        4.77990785569610        1.53410716512416
H           -5.90849342513058        4.85579742689664       -0.23386552449557
H           -4.17475933914214        6.19111868700390        2.80053575868394
H           -3.16042065346986        7.35607972190058        1.95326597517578
H           -4.90356596133502        7.60013700379975        2.02401849439690
H            6.61244042544540       -2.08097903151789       -1.61800404505119
H            7.89646330199179       -0.29869241824956       -2.62196781804812
H            8.10530614017863        2.02423012902136       -3.41464941952791
H            6.18568946670835        3.56362231379921       -3.21892324819199
H            4.11424609244549        2.82506728625979       -2.13124654868441
H           -6.62236507863844       -2.53516371931333        0.97221726414357
H           -4.33464017299220        2.26096211303201        2.48630360702550
H           -6.50817783167000        2.76792099217599        3.51195500159177
H           -8.39003284087536        1.18807153514885        3.27687335593581
H           -8.04791919145307       -0.96230710239025        2.12973571961770
H           -2.10600944624139       -5.58750474929477        0.17691096284584
H           -0.69016955663947       -7.10691972325411       -1.14198627670930
H            0.50762013385160       -6.27008649942504       -3.13127142189310
H            0.24360556786094       -3.91497584963460       -3.82173379136254
H           -1.21810565232799       -2.41000988841569       -2.53930873431048
H           -5.55773644703391       -4.70118768302759        1.61938601652333
H           -6.76613692960620       -6.79140029727029        1.15899982639747
H           -6.56684779263344       -7.87614477412458       -1.04970922728048
H           -5.18122853621937       -6.83354942386136       -2.80568051658336
H           -3.99767210391346       -4.72670762333180       -2.35768124403837
H            5.40298773297751       -4.26793299113383       -2.48342905255308
H            6.75703808697783       -6.32699145060852       -2.41799597792882
H            7.04307856902501       -7.54802438137777       -0.29229120877865
H            5.97492890732100       -6.70057368228105        1.76581298708698
H            4.61136311855540       -4.65162586966920        1.69499322070047
H            1.48438783430974       -2.55280961214994        2.31042084243004
H            0.25098927608242       -4.25886505733856        3.57876798620665
H            0.14815348452261       -6.58187811499806        2.75570349513470
H            1.27776573674351       -7.18562128730779        0.64471267513359
H            2.45630365654986       -5.46867979847676       -0.66005284083681
H            6.09201243114654        6.59729391271337        0.19362371079152
H            5.62757500764358        5.07522359750532        0.94487834437282
H            5.56072675788158        5.25700545913926       -0.81574755968120
H            4.46325222090561        8.08200785671790       -0.86200516892717
H            2.74012454313918        7.71746365933757       -0.86400996672620
H            3.83755932164573        6.76917472760355       -1.86406071565965
H            3.97872736559497        6.31596668187544        2.41036520631924
H            4.57887922003109        7.80148373493005        1.66746215746938
H            2.84959088474989        7.46954539805909        1.70426907321040
