132
energy: -196.939577368930 gnorm: 0.002759658958 xtb: 6.7.1 (edcfbbe)
C           -1.24196704690802        0.35220113210505        0.13247548222245
C           -1.16962767424925       -1.04293945749472       -0.07610104734697
C            0.05698074932454       -1.68445129826656       -0.20808337396521
C            1.24304822287284       -0.95661091929678       -0.20498977008602
C            1.23506513823271        0.45529915927528       -0.18774696569545
C           -0.02405039202400        1.04747575868679        0.01928449909221
N           -0.06507188320950        2.39973004696151        0.13086047001376
N           -2.37041634027660       -1.73037999626951       -0.08958568888233
N            2.48284079117571       -1.56481019877966       -0.25020045257381
C            1.01900703258762        3.23149859916686        0.08890762971742
C            0.59319332770603        4.56623798134635        0.25979432921730
C           -0.85491770076837        4.51313910943399        0.36890566104404
C           -1.19642300176745        3.14536170124143        0.31085599387898
C            2.33618965954561        2.82483636947869       -0.10465959398315
C            3.27120858850731        3.86498277031951        0.01594415980416
C            2.91140993991256        5.19517623494374        0.20629570815779
C            1.55910602912597        5.55136027089199        0.30018854987412
C           -1.88110489391779        5.42902668865002        0.48873192683901
C           -3.20849827582997        4.97868163401515        0.51481471912380
C           -3.48312825919795        3.61545047807586        0.48857972455772
C           -2.48339798277894        2.63193204688078        0.43903802733039
C           -4.32152702365712        6.01785082843327        0.58195205271501
C           -4.22490443793494        6.93179340595913       -0.64809193193624
C           -5.72126712984202        5.39595856343724        0.59879362568677
C           -4.16026370383150        6.84845044920382        1.86308190641413
C            2.83421051243346       -2.90263095462249       -0.05793306312940
C            4.13848457561399       -3.09028338162164       -0.43024333145204
C            4.65004250435026       -1.81627338752188       -0.85317936765493
C            3.58844998790196       -0.88295653440978       -0.69550979689087
C           -3.49061933449564       -1.19383258652627        0.50290633356629
C           -4.48395792564600       -2.20843377677411        0.58236711641882
C           -3.92606374871188       -3.36981735843008       -0.04906146173206
C           -2.65524903476456       -3.04646714116231       -0.45117453483297
C            5.86702126189025       -1.38576331836425       -1.31946262964492
C            6.00646879037777       -0.03674366040961       -1.70062337983948
C            4.92377875741838        0.88327037493072       -1.54536010866247
C            3.69895030528120        0.48041981351594       -0.93210268735072
C            7.21666454740737        0.42046887223630       -2.26902156934614
C            7.35058793554403        1.70356517144596       -2.71580549573565
C            6.26066714563699        2.58322480352929       -2.64194963731020
C            5.08254651449320        2.17945637720718       -2.07655760639158
C           -3.67132060411344        0.11151548649564        0.93742213665021
C           -4.88462215556157        0.34562598039278        1.65238752563114
C           -5.90445446204826       -0.65310440092896        1.71655985853205
C           -5.70256372405997       -1.92468154912533        1.14661853591088
C           -5.09154546660946        1.54165499370020        2.36951948426254
C           -6.26354830155947        1.78704017353057        3.03010358800544
C           -7.29926827183291        0.84118807800696        3.01404981024672
C           -7.11354158685135       -0.35561201409288        2.38432449462615
C           -4.64540084491904       -4.62500483203551       -0.27081344643839
C           -1.78900055020947       -3.91108255608949       -1.24598576856246
C           -1.68186501772360       -5.26314547837262       -0.92756454546379
C           -0.93581409400978       -6.11177951240517       -1.72260956410559
C           -0.27672605217900       -5.62391452962675       -2.83780190621482
C           -0.37729597831862       -4.28077748526587       -3.16261318568824
C           -1.13509991650645       -3.43056259375128       -2.38154916365690
C           -5.11089820241688       -5.36304554667340        0.81250442368357
C           -5.80607543887289       -6.54079286622355        0.60945729734778
C           -6.06053122263299       -6.98450831636267       -0.67589262719268
C           -5.60785983898726       -6.25038054455173       -1.75874638845492
C           -4.89921348218711       -5.08076182627314       -1.55969450303721
C            4.93504953040843       -4.32249991837163       -0.36266647820251
C            4.84831255312639       -5.28093089185395       -1.36595839241806
C            5.61456224302417       -6.43041081359840       -1.30335447662878
C            6.48235116733621       -6.63058417716638       -0.24361132755380
C            6.58668252849436       -5.67269394979896        0.74991123659617
C            5.81975873117085       -4.52334188209776        0.69026729327647
C            1.97507696637710       -3.85195042354218        0.64557760854173
C            1.31917773378794       -3.44941535345526        1.81226770893527
C            0.50634311865626       -4.32823569843292        2.49859691971329
C            0.35544360120858       -5.63077100465995        2.05076314127406
C            1.03141030849403       -6.04849903242065        0.91762647629151
C            1.83239405823552       -5.16692301223047        0.21465249123913
B            2.49763198950494        1.30977508231976       -0.42017472168724
B           -2.54418012681199        1.08106803781517        0.51604032657975
C            3.95406715804976        6.30382819770570        0.29185583035713
C            5.39179981575049        5.78317227123348        0.20315686573628
C            3.73293358066709        7.28103362805130       -0.87217919825282
C            3.80227922613152        7.04316061703343        1.62883433732115
H            0.08944291441244       -2.75456746901511       -0.30295855423362
H            4.31408711056526        3.60122543214299       -0.02679744694740
H            1.26765653576843        6.58342990838472        0.42259367912920
H           -1.65589384193369        6.48338331981917        0.54133666247236
H           -4.50645478844298        3.28070429888845        0.48912838045848
H           -5.02293862984469        7.67121960109319       -0.63098306357521
H           -3.27504107414809        7.45829664163126       -0.67977460821568
H           -4.31865074488300        6.34399102287367       -1.55902755333488
H           -6.46605793052098        6.18791976920194        0.64965700811907
H           -5.85726791875603        4.75163568422563        1.46415906238293
H           -5.90693638950266        4.82003461788848       -0.30474943587894
H           -4.22339510201276        6.20437446055076        2.73792531155859
H           -3.20404949501708        7.36349884196999        1.88832297592989
H           -4.94928253804684        7.59506508553404        1.92695403588336
H            6.70028926015982       -2.06592407965154       -1.42209547842805
H            8.03462265710880       -0.28053681552617       -2.36136634262724
H            8.28054719148934        2.03922010621293       -3.15133151672029
H            6.35567129141161        3.58029673929002       -3.04825711349918
H            4.23237087345244        2.84218982899634       -2.06420117196036
H           -6.48905144429837       -2.66473484127694        1.18275332186651
H           -4.28267712236998        2.25246870363425        2.41976142980748
H           -6.39524284968820        2.70814255274639        3.57993855728749
H           -8.22731953827838        1.05519366615618        3.52366706634487
H           -7.88696785343025       -1.11094744186416        2.40162605989408
H           -2.18064781826799       -5.64204742870437       -0.04882305037171
H           -0.86962974490848       -7.15958811416547       -1.47038673812017
H            0.30957114761049       -6.28813426298895       -3.45551803544326
H            0.12994790996562       -3.89561380803563       -4.03526306548066
H           -1.22613903286667       -2.38759186818002       -2.64964945241321
H           -4.91052568482888       -5.01346674615022        1.81443569304599
H           -6.15129326368198       -7.11397824228984        1.45641213456538
H           -6.61139042671814       -7.89995791645077       -0.83382335631626
H           -5.81265155171616       -6.58947959320417       -2.76285700314469
H           -4.54534912630460       -4.50551628518412       -2.40275717879678
H            4.18323076497974       -5.11517042291869       -2.20226249289004
H            5.53673914458424       -7.17182938092962       -2.08497325071369
H            7.07973893934625       -7.52912070896691       -0.19508769585359
H            7.26883353504615       -5.82159323797240        1.57412958970574
H            5.89892288689672       -3.77423164675018        1.46467630489423
H            1.44663914844902       -2.43903280254079        2.17315290858581
H           -0.00937812198616       -3.99730874633792        3.38837029137001
H           -0.28490586244451       -6.31620330662585        2.58593551670913
H            0.93117037620166       -7.06683397500030        0.57344146916232
H            2.33646930338448       -5.49444599818376       -0.68049667515446
H            6.08287016598392        6.62062076999088        0.28085528219376
H            5.61066435172516        5.09217997690263        1.01400682093586
H            5.57413773317041        5.28509146527942       -0.74616761542687
H            4.46414656900285        8.08599732279873       -0.83126561080258
H            2.74021691265587        7.72191279589796       -0.83937211482884
H            3.84314302168782        6.76229488752120       -1.82267638601692
H            3.94551153574680        6.35235780078259        2.45724985530377
H            4.54599177295687        7.83367533398351        1.70658678566691
H            2.81868934164230        7.49362749618552        1.72792968491083
