132
energy: -196.931874629459 gnorm: 0.006633190108 xtb: 6.7.1 (edcfbbe)
C           -1.25845951950651        0.35172476143763       -0.08786954511250
C           -1.17636037704855       -1.04507936202190       -0.25271922678764
C            0.05526398238254       -1.69195214423559       -0.33924488847674
C            1.24378732711546       -0.96519105826951       -0.33312844737607
C            1.22856205994577        0.45113002447353       -0.31436667190182
C           -0.03850820704653        1.04679658217894       -0.17207990012373
N           -0.09518325587131        2.40126511709660       -0.08152526773602
N           -2.37512319224836       -1.73728180303076       -0.23578099174837
N            2.48693120963046       -1.57589418761440       -0.31911456807433
C            0.98317355127163        3.23972443728241       -0.04814076808620
C            0.54252849372846        4.57211126176218        0.09406231815882
C           -0.90830337294941        4.51235599075764        0.10601139318744
C           -1.23765712680287        3.14254767829115        0.03970537976700
C            2.31105208399538        2.83463486914226       -0.12725282283971
C            3.23015546079386        3.87246439125645        0.09132829891869
C            2.85319875924252        5.20068721393176        0.26211092556516
C            1.49896690090034        5.55816822496240        0.22846112686099
C           -1.94348614974435        5.42485940381255        0.15173148951422
C           -3.26733069610667        4.96817701939574        0.10940532165365
C           -3.53395848539514        3.60243697404578        0.10967529032932
C           -2.52702610867538        2.62626936193086        0.12648706198484
C           -4.38488750227956        6.00420522881137        0.08240138432665
C           -4.19670800733238        6.90862347578101       -1.14432258030478
C           -5.77901230373149        5.37663550485693       -0.00539717048270
C           -4.32115805189939        6.84360950528505        1.36616896172580
C            2.84134519980834       -2.90634084592046       -0.11225617585336
C            4.20485790317018       -3.04014307760736       -0.12196060228792
C            4.75350094625623       -1.74150493110933       -0.40315181333658
C            3.64741801504199       -0.85443768093995       -0.50242983768554
C           -3.45646877961849       -1.20661888421331        0.42534836308923
C           -4.38935459436796       -2.25209272207142        0.65603178007455
C           -3.84781799564918       -3.43025213115641        0.03596737318888
C           -2.65484127955231       -3.07270016482464       -0.55447305911797
C            6.02781853164748       -1.27442714771313       -0.60748268400535
C            6.20318963896573        0.06706433332598       -0.99702929289863
C            5.08068702307120        0.94100278476663       -1.10603928136384
C            3.77223954616568        0.50884353651907       -0.73254310500008
C            7.48822131236653        0.55918673371688       -1.31959753484830
C            7.66065125142869        1.82585874364480       -1.79758493549272
C            6.54395502701625        2.64890199086109       -2.00936942025765
C            5.29171805174923        2.21527821068263       -1.67276754201894
C           -3.65397817560682        0.11509307740504        0.79736122357960
C           -4.82141981622053        0.35351632887738        1.58316297868047
C           -5.76885919281901       -0.68781207771107        1.82909917120255
C           -5.54866405838099       -1.99115180883056        1.34365874580590
C           -5.04700901251136        1.60440328983420        2.19444616704222
C           -6.16780504457095        1.84716694900770        2.93875347096851
C           -7.13092156961334        0.84308621568753        3.12058597766814
C           -6.92559372031950       -0.39643047974665        2.58741244900908
C           -4.50016862223919       -4.73434648667263        0.13483466897917
C           -1.99321130478389       -3.74308517485591       -1.66833923455636
C           -2.07225491300448       -5.12276346733179       -1.86560895388217
C           -1.57094810962284       -5.70247086475039       -3.01601412632866
C           -0.96229274485366       -4.92921844346795       -3.98962324986846
C           -0.88723987413305       -3.55758301397531       -3.81367859906443
C           -1.40684400642760       -2.97028906101858       -2.67761714245570
C           -3.85844197348754       -5.77670774893994        0.80468003159972
C           -4.49012569336859       -6.99430332077578        0.96998234155795
C           -5.77157943334122       -7.18405133685747        0.47695041774065
C           -6.42122864069006       -6.14952472525666       -0.17404874067587
C           -5.79287933093623       -4.92788330303484       -0.34022069268444
C            4.97896891959731       -4.24418284264816        0.16603854811696
C            4.67212032473286       -5.47323020623267       -0.41160671050202
C            5.40665018036359       -6.59983652168247       -0.09273203555014
C            6.46229155753989       -6.51596230191788        0.79903973843280
C            6.78513469618523       -5.29535801192147        1.36895945013211
C            6.05021630331460       -4.16822910120932        1.05631674097466
C            1.93070304340928       -4.03287898301049        0.15720979857366
C            1.68106429666866       -4.41364369030766        1.47409966016348
C            0.95171129234484       -5.55827986532777        1.74104464843517
C            0.48702344338288       -6.34370176338549        0.69758381410884
C            0.73700005113001       -5.97400672853741       -0.61561696078367
C            1.44632782072468       -4.81921479262207       -0.88756302918826
B            2.49933486972605        1.31950926807412       -0.42305522432577
B           -2.56963778620354        1.08123073475782        0.26827631778891
C            3.88175036807809        6.30323128184094        0.48577690624271
C            5.32006729592800        5.77928394058320        0.53016933141566
C            3.78313092358442        7.31992561466696       -0.66033482636378
C            3.58891576451370        6.99446955212216        1.82525082228078
H            0.07886352858904       -2.76665651524685       -0.39006457804134
H            4.27182207896036        3.60887466267855        0.14775379468110
H            1.19695545502194        6.58887388198706        0.33445485177875
H           -1.72582864781082        6.48080565857446        0.20101808653150
H           -4.55456274058315        3.26024388697310        0.07816762146933
H           -5.00017318730512        7.64025280413670       -1.19954683893091
H           -3.25276960967590        7.44510176541823       -1.10448415929991
H           -4.21046886433088        6.31187796620050       -2.05430457083501
H           -6.52834102804144        6.16512590046710       -0.04027372624732
H           -5.98781693687015        4.75417954109098        0.86170634608791
H           -5.88190377031510        4.77671194321905       -0.90678050647747
H           -4.44381332238162        6.20394611445174        2.23800356523586
H           -3.37040904150017        7.36187769947004        1.45631254834461
H           -5.11528385050308        7.58741144351218        1.36919380957236
H            6.88428803324061       -1.92648556233919       -0.51873958785901
H            8.33467293509558       -0.10300704145708       -1.20060600493050
H            8.64699624608526        2.19055168429850       -2.04503578442851
H            6.68266703342446        3.62409268496468       -2.45423056100965
H            4.42880374202636        2.82791588496058       -1.87935191412417
H           -6.27626590501857       -2.76814291340376        1.52868340370788
H           -4.29125920108643        2.36559008073356        2.09045169474515
H           -6.31442264042478        2.81203290168277        3.40326391936588
H           -8.01763733013765        1.05212795481704        3.70137578153183
H           -7.64240040718264       -1.18939343026015        2.75070139311573
H           -2.53912659957156       -5.74717928824562       -1.12352702708580
H           -1.66153888536859       -6.77056948204940       -3.15589356117075
H           -0.56316755617752       -5.38861745487714       -4.88226542907759
H           -0.43738353245074       -2.93735215688170       -4.57542890651779
H           -1.38093246843492       -1.89512311095287       -2.58597851129151
H           -2.86706544799830       -5.61152387535574        1.20528861673709
H           -3.98694556452516       -7.79750564503100        1.48876644878001
H           -6.26429747563671       -8.13679479934084        0.60723862350254
H           -7.42289411676996       -6.29524356850044       -0.55184242221988
H           -6.29364917951870       -4.11813864955203       -0.85075315048857
H            3.86091591598054       -5.54011994891826       -1.11971798579546
H            5.15520885092622       -7.54857096456241       -0.54448295413587
H            7.03245527918646       -7.39880472624972        1.04915235057127
H            7.60987180804784       -5.22550379375948        2.06388218705753
H            6.28591445884014       -3.22015937769312        1.51780413629517
H            2.07224287002574       -3.81325040690118        2.28478602838685
H            0.76293852970839       -5.84952345531985        2.76609908742965
H           -0.06145877901780       -7.25080213127125        0.90585267594199
H            0.39116899172766       -6.59399959940081       -1.42982768829494
H            1.63396529566261       -4.52345541936870       -1.91253217160509
H            6.00130089294157        6.60956852177879        0.70617634289121
H            5.45199956061532        5.06160087757801        1.33651068081407
H            5.59820997980431        5.31011868611210       -0.41054047363857
H            4.51784804638394        8.11119965826413       -0.52516078647923
H            2.79793610108331        7.77620594577239       -0.70532224403324
H            3.97499022911787        6.83013904401974       -1.61309023767870
H            3.63452857921810        6.27046149273739        2.63650425131455
H            4.32385893131252        7.77377136331750        2.01619975183222
H            2.60260731765257        7.45014591758573        1.83223155451638
