132
energy: -196.918445269681 gnorm: 0.016558699784 xtb: 6.7.1 (edcfbbe)
C           -1.32330452411385        0.34234257740126       -0.25743656281093
C           -1.23820305538678       -1.05419070759019       -0.31189795670211
C           -0.02222352734648       -1.72922708129606       -0.24299325145251
C            1.17027720345695       -1.01533921597710       -0.31279838461548
C            1.15596505831879        0.39633738885154       -0.40436822885064
C           -0.09935207215346        1.01461285498871       -0.32340290326897
N           -0.14287988501992        2.36511282303613       -0.23646635726227
N           -2.44953765662493       -1.71368655735462       -0.32792323510730
N            2.42010766657195       -1.60949807115288       -0.24763306840201
C            0.93990597896756        3.18244690743414       -0.13281369884522
C            0.50799251778271        4.50941265804649        0.03314837020082
C           -0.93192933834207        4.46873327216575       -0.01776161000686
C           -1.28043459130280        3.11266792388154       -0.14844088528130
C            2.25835673307748        2.76121342783331       -0.16592344254004
C            3.18383335728588        3.77113625456404        0.12478384343835
C            2.80390742288598        5.09111421323370        0.31581830716316
C            1.46126408144575        5.47583524733680        0.24236821340367
C           -1.94346837695428        5.39591798299999        0.04395367135102
C           -3.26831343031186        4.95689522670866       -0.04064369064337
C           -3.56909409424264        3.60445694314868       -0.10217947221222
C           -2.57607662146018        2.61883402905620       -0.10216981044364
C           -4.34322248987229        6.02430392142306       -0.02150617279254
C           -4.10063140447330        6.95579426406901       -1.21563606424456
C           -5.74837489785868        5.43435088946109       -0.12932509934240
C           -4.22298780712707        6.78325118900215        1.30595738899206
C            2.78920942320830       -2.91352662639471        0.06113957942888
C            4.15549443926695       -2.99939662511743        0.14446650836565
C            4.69304672952444       -1.71934927090836       -0.19138908073093
C            3.57678325051245       -0.87756525519160       -0.40968818018960
C           -3.51855389347179       -1.16410147483739        0.32907126533975
C           -4.45584312278636       -2.19118752087504        0.59070636452793
C           -3.93025951386913       -3.37149833252447       -0.03414385702865
C           -2.73797363394141       -3.03858791560623       -0.65023636115953
C            5.96885812715857       -1.25177072308276       -0.38769534307703
C            6.13801830482975        0.06244091000737       -0.85663838576357
C            5.01020411843154        0.90572871375197       -1.05524301395800
C            3.70130021429825        0.46361701051430       -0.72558308535502
C            7.42258977071551        0.56015770384143       -1.16786893692069
C            7.57930068028852        1.80768712975096       -1.69722383080616
C            6.45772701433255        2.60487097156370       -1.97356733461612
C            5.20264598263695        2.16149089720331       -1.66605542492975
C           -3.68937995288523        0.16423902821501        0.67577113972005
C           -4.81451643516398        0.43852593179993        1.49944092089786
C           -5.76386789811224       -0.58462886424445        1.79164050882571
C           -5.58418351318928       -1.89939221631756        1.31973724827210
C           -4.97859748532975        1.70326559943640        2.10054347491809
C           -6.06943918395620        1.97851980875834        2.87543142482567
C           -7.04777963199482        0.99706653441838        3.09642627330320
C           -6.88911996373328       -0.25658544831576        2.58193252778434
C           -4.53049608802812       -4.67155274219405        0.17228921112867
C           -2.10516054704038       -3.69292117807467       -1.78878642231488
C           -2.47435972863657       -4.98889276802598       -2.16376768154551
C           -1.94427923362852       -5.58419281106172       -3.29066494401917
C           -1.02296579341886       -4.90941994897422       -4.07332080827101
C           -0.69486135414216       -3.60426828257280       -3.75395489325443
C           -1.24438378242174       -2.99369028094018       -2.64275551608971
C           -3.72494426271120       -5.71629111562530        0.62648642607861
C           -4.28929126123741       -6.94719328938047        0.88567633456180
C           -5.65516773112032       -7.12284782782105        0.72645449145499
C           -6.46145826176909       -6.07680637728036        0.31125096759324
C           -5.90075961737734       -4.84713367280415        0.02500235212994
C            4.98394715244457       -4.16205600031496        0.39683034596284
C            4.71376003447075       -5.38037761719064       -0.21627399814645
C            5.55554787751495       -6.45200923432308       -0.00052875209599
C            6.67909185047536       -6.30131304967683        0.79539623032491
C            6.96027128549119       -5.08493725127635        1.39399307767712
C            6.10515080694381       -4.01762343133405        1.20941340762503
C            1.95239958937059       -4.09812557132519        0.23219830219787
C            2.15699334701590       -4.87730001254026        1.37054516387535
C            1.53780462014612       -6.10568804450390        1.48569515422312
C            0.69546742270846       -6.54901271180954        0.47937060689407
C            0.49443732401284       -5.78459796681889       -0.65695142059858
C            1.13857986523614       -4.56914347593706       -0.79436843523719
B            2.42231538601282        1.26002636158027       -0.48875505474621
B           -2.62575754693789        1.08841111457229        0.06426396930462
C            3.81278845699197        6.18910284450241        0.58753737588900
C            5.24695676222126        5.66420121125754        0.63671269226630
C            3.69812222689982        7.20930747720118       -0.55236729017088
C            3.46997358144388        6.82860375357925        1.93863887591777
H           -0.04211606136552       -2.79769438274141       -0.13078933565903
H            4.21820910683459        3.48738195578204        0.21620782759776
H            1.15720298225764        6.50272427530951        0.37246995637874
H           -1.69786545893193        6.44145453207477        0.14594978058116
H           -4.59296855828756        3.27401228784627       -0.15707158942890
H           -4.86797899628716        7.72326038581684       -1.27049451230440
H           -3.13286018424158        7.44409983358924       -1.14353626289296
H           -4.11573233362208        6.37886042807323       -2.13886253645213
H           -6.48561225447146        6.23307634477403       -0.12035130152429
H           -5.95365514221025        4.77109354231037        0.70799294221933
H           -5.86045941402817        4.87772151613499       -1.05712944184514
H           -4.32115959953926        6.08549229605358        2.13599170456360
H           -3.25694308788129        7.27228699966046        1.39379182370812
H           -4.99834112692684        7.53972618817632        1.39091645888624
H            6.82704772610175       -1.88914730324717       -0.23391675522664
H            8.26884285165315       -0.08882117592124       -0.99030178234112
H            8.56604814683337        2.17830550764240       -1.93437317340651
H            6.59223549525818        3.56863271016700       -2.44445502327409
H            4.32609812639222        2.73880802190391       -1.91426703466327
H           -6.31654988505548       -2.65749365976937        1.55524368531327
H           -4.19990575996286        2.43521151646922        1.95737078897272
H           -6.17900657950321        2.95253660678995        3.33210771881125
H           -7.91412166780830        1.23507917878066        3.69683725505736
H           -7.61269587523339       -1.03657040784815        2.77523153938475
H           -3.19614915629563       -5.52821999112334       -1.57655944026114
H           -2.25920290304417       -6.58483045865779       -3.55225829080785
H           -0.58354711990856       -5.38892101403422       -4.93555608964804
H           -0.00981690722199       -3.04542216872429       -4.37671967838621
H           -1.00737420023237       -1.95983524505807       -2.45321404461622
H           -2.66806738276837       -5.53220621722540        0.76336364045668
H           -3.66344067634104       -7.76449615083173        1.21390275431055
H           -6.09518806475201       -8.08758783521379        0.93021932726665
H           -7.52769688738419       -6.21517332361341        0.20641577017509
H           -6.49540371068154       -4.02004526488885       -0.33296044656637
H            3.85533348760807       -5.46354363681764       -0.86484239306137
H            5.33695364961357       -7.40171503204391       -0.46686789997303
H            7.34361389651809       -7.13875723517432        0.94771472719062
H            7.84523688199081       -4.96242139534484        2.00181873568112
H            6.27992705084176       -3.06702840746346        1.69196645477901
H            2.82634317981850       -4.51180985119001        2.13523930953555
H            1.72996113117929       -6.72303001080298        2.35099322599486
H            0.20577408770553       -7.50773805011443        0.57039406057009
H           -0.14637879333421       -6.13919431185399       -1.44972371131937
H            1.03807181317600       -3.99068370065680       -1.70137088501943
H            5.93349703665434        6.48645762302096        0.82222625960105
H            5.36456568584438        4.93606437058138        1.43616767490823
H            5.51970061882109        5.19777041245419       -0.30705797852360
H            4.43032105970073        8.00370230304454       -0.43694114257785
H            2.70905911705067        7.65750118495602       -0.58152271090608
H            3.86771633187400        6.71145648467906       -1.50566199772098
H            3.48856047056234        6.06941577575794        2.71881970663919
H            4.18603979335743        7.60627425929996        2.19085143468849
H            2.47701560476879        7.26917326120671        1.92535682512107
