132
energy: -196.941967013414 gnorm: 0.012764130280 xtb: 6.7.1 (edcfbbe)
C           -1.25714320855220        0.35738286156840        0.21513727183610
C           -1.18405113529692       -1.04118830574537        0.02041051723401
C            0.04304980715991       -1.68688240763185       -0.08978772128497
C            1.22909776223993       -0.95980804325312       -0.11171643591573
C            1.22035815314309        0.45203576179879       -0.11570311600532
C           -0.03680727313650        1.04746250900182        0.09843582026195
N           -0.06915315531434        2.40112214726008        0.19622907204946
N           -2.38547237315865       -1.72539592749889       -0.01827133705387
N            2.46891804185881       -1.56673175247212       -0.18139164693582
C            1.01725096156903        3.22794933732188        0.13337947072493
C            0.59929578928344        4.56536576602476        0.29841809303645
C           -0.84537918579476        4.51851048466053        0.42732865804607
C           -1.19667750808006        3.15289049518725        0.38035224029136
C            2.33036157163688        2.82017578644759       -0.08388806760722
C            3.26968580215171        3.85930656712324        0.00534115826502
C            2.91580232214929        5.19209437996772        0.19213592389460
C            1.56619778118188        5.54983381715124        0.30879884367267
C           -1.86065610125046        5.44449640744681        0.55214117683305
C           -3.19001706203268        5.00361020805451        0.58527165697321
C           -3.47673665882073        3.64230527519408        0.56132646960590
C           -2.48692684802695        2.64721956597722        0.51100564232282
C           -4.28924320051224        6.05739365448720        0.64989908246480
C           -4.17743101579512        6.96372694873593       -0.58449346659411
C           -5.69598768690818        5.45307950322877        0.66890225988823
C           -4.11435553041524        6.89007641445007        1.92809940213075
C            2.83155317090816       -2.90116132390580        0.00753297500335
C            4.10861935316645       -3.09705532469725       -0.44864566912840
C            4.59407944877559       -1.83043592868655       -0.91945360147139
C            3.54900875026639       -0.89263507449079       -0.69730403503117
C           -3.52754114807187       -1.17678815863910        0.51854866242227
C           -4.53978332110572       -2.17663136011778        0.53265869976885
C           -3.96314628204190       -3.34676904929380       -0.07477570934841
C           -2.66670651683893       -3.03460932838685       -0.40085756025478
C            5.78793065152002       -1.40907253009873       -1.44708370864557
C            5.91973876130986       -0.05833735092005       -1.82556061170743
C            4.84962964417132        0.86560066238711       -1.61862617116410
C            3.65393776463101        0.46837887731648       -0.94788342552779
C            7.11033511820647        0.39426152799618       -2.43533848454539
C            7.23610767706816        1.68123761038569       -2.87427209806737
C            6.15275469817317        2.56405340514016       -2.75576508176309
C            4.99359827785828        2.16334478701973       -2.15049273839977
C           -3.71293078708087        0.12972096200344        0.94975109329359
C           -4.95804015153975        0.37378572818636        1.60562319600275
C           -5.99967000360855       -0.60306210121923        1.59082181490482
C           -5.78874773774206       -1.86886063920382        1.00976226450383
C           -5.18000629590597        1.55550488227134        2.34117519869952
C           -6.38027299545623        1.80800795501715        2.94614898426065
C           -7.43360776341337        0.88653866636634        2.84952266362651
C           -7.23831862070722       -0.29621120516752        2.19675765023287
C           -4.66865190628358       -4.59711834642212       -0.32780030593803
C           -1.74751554424117       -3.90254799848333       -1.13300043996460
C           -1.55930692648164       -5.22316195715008       -0.73353736318735
C           -0.74738293430848       -6.06391746496586       -1.46969614644503
C           -0.10715011590670       -5.59903345564006       -2.60606905239602
C           -0.29230608074309       -4.28779752213300       -3.01422666240340
C           -1.11337150681010       -3.44633962147562       -2.28938812874627
C           -5.44746109489035       -5.17117679267438        0.67662389178682
C           -6.14917070746877       -6.33773114283789        0.44728488682595
C           -6.09568019138121       -6.94826138704074       -0.79429446492800
C           -5.31565525536411       -6.39241275157335       -1.79843262411477
C           -4.61481296204383       -5.22375717173015       -1.57409627303803
C            4.90370980410731       -4.32796263900986       -0.40485533796374
C            5.17366229036423       -5.03127086416062       -1.56902867595860
C            5.92405584819500       -6.19212685651985       -1.52863212185176
C            6.43220052067700       -6.64942216134140       -0.33027815345543
C            6.18652682096167       -5.94117657900169        0.82984490985319
C            5.42184819120609       -4.79083908445374        0.79510103394712
C            2.03079999414005       -3.88583674342798        0.72557766972627
C            1.33508570466843       -3.54397072259725        1.88615693630826
C            0.62280606499941       -4.50101094158301        2.58053052616659
C            0.60749882707038       -5.81616502516465        2.14335819209868
C            1.32331749267863       -6.16787521711226        1.01236723460583
C            2.02467552000138       -5.21297641503154        0.30207817372570
B            2.47705544260040        1.30262857692281       -0.39079249457239
B           -2.56263987738706        1.09432578374481        0.57742922753639
C            3.95745164779230        6.30246557581091        0.25326647565102
C            5.39349225219990        5.78246585069115        0.14243299459262
C            3.71523958127313        7.27523419250902       -0.91096964868670
C            3.82315432672734        7.04730609979846        1.58884217609583
H            0.07912138976171       -2.75891503083005       -0.16186416312158
H            4.31082054694361        3.59281082387007       -0.06172314545228
H            1.27784420629617        6.58349567555030        0.42321661388602
H           -1.62518893449866        6.49665157362354        0.60098403349310
H           -4.50369822172005        3.31929793204114        0.56292879205841
H           -4.97562582148458        7.70285971862390       -0.58420327451358
H           -3.22758204755214        7.49115748783364       -0.60711773653671
H           -4.25714853655956        6.36912741657132       -1.49221753627807
H           -6.43211787394036        6.25350887257965        0.70868471669926
H           -5.84034618705360        4.81974765263952        1.54096766028239
H           -5.88448353388713        4.86918348343869       -0.22886271049852
H           -4.14718033003501        6.24465921846469        2.80370516636357
H           -3.16649765813700        7.42118762077625        1.93303064992151
H           -4.91366643335316        7.62371753848537        2.01030027120975
H            6.60714501130474       -2.09725785528014       -1.59411860820137
H            7.91922929507179       -0.31209714882636       -2.56074575465554
H            8.15231197698677        2.01766149522196       -3.33704395408835
H            6.23918993724096        3.56340956855387       -3.15912168661014
H            4.14913563935565        2.83155569182539       -2.10294488115428
H           -6.59570613260855       -2.58598643688998        0.97160417055327
H           -4.36219655911848        2.24829959918023        2.45685043979524
H           -6.52268597691825        2.71517557444840        3.51609129125310
H           -8.38173891109640        1.10853435379730        3.31686151060453
H           -8.02524391403921       -1.03622843526806        2.15229671636986
H           -2.04725007269473       -5.58638775739725        0.15867305457422
H           -0.61204664812470       -7.08831099316342       -1.15847744982571
H            0.53389142336785       -6.25185053092186       -3.17946451941588
H            0.19781037099333       -3.91946870204129       -3.90370637436343
H           -1.27187581020389       -2.42734813920392       -2.61364631704641
H           -5.47453867997908       -4.69509172296153        1.65148084529066
H           -6.73716059284434       -6.77695934467212        1.24197899223774
H           -6.64166437247821       -7.86248955081293       -0.97176688219130
H           -5.26917066774041       -6.86809627463721       -2.77051939770945
H           -4.02798096131646       -4.78332935479612       -2.36895489855253
H            4.77933469000683       -4.66950263783537       -2.50423273732748
H            6.11257163718999       -6.74466996911303       -2.43404347770138
H            7.02175121100799       -7.55365219042631       -0.29934407187217
H            6.59205487484844       -6.28950439446979        1.76449662989116
H            5.22358943525683       -4.23506829898319        1.69773851831578
H            1.36136094576808       -2.52309943274551        2.24120410977742
H            0.08081918449847       -4.22122641474227        3.47218761364212
H            0.04629205673194       -6.56465851999289        2.68381996407118
H            1.33466929299694       -7.19369015786663        0.67758744978582
H            2.56667212036683       -5.48502522092651       -0.58933037211315
H            6.08724107442802        6.61727660500461        0.22477353693140
H            5.62127985251932        5.07954421474538        0.94028346400323
H            5.56385203197217        5.29801073924764       -0.81616827605462
H            4.48258378649986        8.04695617352186       -0.92075231971285
H            2.74665526228415        7.76170917783625       -0.82881733055836
H            3.74925348880627        6.74196080876610       -1.85917116738398
H            3.94758702915755        6.35524059405262        2.41913188064276
H            4.58463214401974        7.82047271367692        1.66681727545365
H            2.85021799356815        7.52162782871134        1.68496196415163
