132
energy: -196.944617045196 gnorm: 0.003025597892 xtb: 6.7.1 (edcfbbe)
C           -1.24806142788116        0.35093403654961        0.25027893750262
C           -1.17490340074884       -1.04887910329803        0.07326720567721
C            0.05246299738464       -1.69550171110045       -0.03889583918771
C            1.23730661135829       -0.96736138075420       -0.09459265478667
C            1.22345523272123        0.44445544365809       -0.11311817383028
C           -0.03055369160035        1.04190900689461        0.11026875708629
N           -0.06936759707590        2.39652516455529        0.18815932428055
N           -2.37895761380965       -1.73046069483687        0.04268465953259
N            2.47846103675796       -1.57295106243206       -0.18316459647829
C            1.01448957103427        3.22621897026021        0.10666575759086
C            0.59480754717092        4.56463076292711        0.25823183315775
C           -0.85084149062905        4.51604259170468        0.39204376755914
C           -1.19689447164220        3.14829354827355        0.36767474848251
C            2.32599760159055        2.81533442363314       -0.11081872730190
C            3.26633157692940        3.85425024702582       -0.02655461847441
C            2.91337725657428        5.18684279572061        0.15871660994590
C            1.56344989668591        5.54774416368000        0.26850523752330
C           -1.87039468287428        5.43868670093540        0.50842017002583
C           -3.19858265008637        4.99441041416319        0.56180491202159
C           -3.47901823708186        3.63194643034749        0.56044659425556
C           -2.48463611018556        2.64174851083665        0.51648572364591
C           -4.30234963441919        6.04228251776420        0.64354080361819
C           -4.20927241008672        6.97240365028215       -0.57457590821897
C           -5.70707358323296        5.43241634004212        0.66371082677676
C           -4.11975202973897        6.85482349362411        1.93391219367118
C            2.84989620122443       -2.90056737595213        0.01445745879417
C            4.13429218301320       -3.09382903568317       -0.43182530109503
C            4.60915327469165       -1.82833958082972       -0.92045193067841
C            3.55514830477605       -0.89664570552760       -0.70967773743567
C           -3.52296436504476       -1.17450140974078        0.56725916794017
C           -4.54329299415770       -2.16632798373970        0.56571438974223
C           -3.97029003064541       -3.33639553857775       -0.04135580132745
C           -2.66666429945891       -3.03443482877107       -0.34995111914942
C            5.80146859056907       -1.39154104106830       -1.44235090426629
C            5.91362373568140       -0.04798861663680       -1.84911858842421
C            4.83482738033611        0.86725993098710       -1.65137373678325
C            3.64869629639193        0.46370898278047       -0.96720021601360
C            7.09156440071741        0.40892017658949       -2.48212089221371
C            7.19342557982865        1.68650269764072       -2.95244522618293
C            6.10310450275718        2.56110936257482       -2.83431248369695
C            4.95821206888029        2.15856811506921       -2.20351971295989
C           -3.70247080660450        0.13334790283234        0.99595087247945
C           -4.95122476881911        0.38836748922463        1.63958972179359
C           -5.99995653849957       -0.58087436042744        1.61288760183288
C           -5.79379564563992       -1.84836890491481        1.03465605037926
C           -5.17118842261158        1.57417287364397        2.36914375684734
C           -6.37885974514998        1.84088409746236        2.95378685635540
C           -7.43871573803677        0.92900125332958        2.84221433341741
C           -7.24454082292360       -0.25969653672767        2.19944034901383
C           -4.68535308106504       -4.57675682120571       -0.32717420571209
C           -1.75079412040699       -3.90463312494631       -1.08435824120380
C           -1.60158898600424       -5.23710544863377       -0.70877075218992
C           -0.81007983630307       -6.08709421918813       -1.45775624262677
C           -0.14490474730330       -5.61711229471517       -2.57709536750736
C           -0.28487707814968       -4.29141462720510       -2.95504493005196
C           -1.09067998620782       -3.44168948640418       -2.22338871062404
C           -5.47762984721126       -5.16797615559418        0.65518202172873
C           -6.16440269717955       -6.33829931056480        0.39176828324340
C           -6.07151771092710       -6.93396642470852       -0.85516003858178
C           -5.29058099676771       -6.35064996006353       -1.83883794021014
C           -4.60393522264941       -5.17928184348702       -1.58062642440432
C            4.92439553641135       -4.32050882153010       -0.38075142159639
C            5.61344796766655       -4.74894941774390       -1.51266990846151
C            6.37484344748484       -5.90232494084469       -1.47528226370759
C            6.46169610481303       -6.64224891109284       -0.30872473959830
C            5.78546435790171       -6.21944158200525        0.82339605466342
C            5.02375892569259       -5.06726425056543        0.79116634773877
C            2.04131245098612       -3.88965140290832        0.72068973488552
C            1.42964160325118       -3.56571728661614        1.93219843532493
C            0.74130912367763       -4.52834186837666        2.64519114117956
C            0.67106925134295       -5.82798333087825        2.17218508040260
C            1.28310945087789       -6.15943463716663        0.97502854982767
C            1.95652151539131       -5.19730178001368        0.24781816762176
B            2.47395627414394        1.29684137892463       -0.40742536548474
B           -2.55227209134702        1.09066777070385        0.61092034660081
C            3.96023890642067        6.29206359911160        0.23614205081650
C            5.39482850386713        5.76696877931399        0.12644257501199
C            3.72932917159435        7.28249270841251       -0.91420653875417
C            3.82442300064290        7.01637370975655        1.58359942244737
H            0.08599696426393       -2.76876646418072       -0.09073117447556
H            4.30711532444537        3.58646616389033       -0.09286854440783
H            1.27633353839307        6.58209108100767        0.38089986020148
H           -1.63902096095749        6.49245506778274        0.53795343946816
H           -4.50422808498967        3.30390590582574        0.57722392473204
H           -5.00568711781433        7.71314905809338       -0.54236183566735
H           -3.25934072759050        7.49870493510593       -0.60434457458551
H           -4.30934772463718        6.39803231185631       -1.49331248359938
H           -6.44516729302859        6.23059496090485        0.71666523161626
H           -5.84670246658018        4.78892764415901        1.52897949285524
H           -5.89883246927102        4.85827609333425       -0.23980996052270
H           -4.16008255751075        6.19746796244096        2.80013273707155
H           -3.16548558103401        7.37422648382446        1.94568701338179
H           -4.91098566531696        7.59604353634964        2.02602987260279
H            6.64085821081912       -2.06044068263482       -1.56639851261316
H            7.90952099198041       -0.28756786743939       -2.60496441299518
H            8.09799969829575        2.02179278330680       -3.43886992574487
H            6.17066729382393        3.55357904121130       -3.25701202488128
H            4.10729599560286        2.81855147805653       -2.15195079839472
H           -6.60918970205619       -2.55527709329525        0.98826985512489
H           -4.34585854877226        2.25683597547647        2.49366268087572
H           -6.52125312773966        2.75258664673929        3.51650948185364
H           -8.39372457028359        1.16112818238356        3.29072993866634
H           -8.03916282050823       -0.99110001062334        2.14608954031813
H           -2.10843976421287       -5.59970971826628        0.17269458477259
H           -0.71457224300700       -7.12227535726837       -1.16673928905591
H            0.47795756720267       -6.28266565673248       -3.15597879918514
H            0.22787907390553       -3.92053446120714       -3.83056733224949
H           -1.21613786484609       -2.41334090959997       -2.53145935978159
H           -5.53543566112314       -4.71400956364617        1.63404023643612
H           -6.77237262871064       -6.79025790354317        1.16197864970537
H           -6.60768101387354       -7.84907012551933       -1.06021857891507
H           -5.21830886355995       -6.80877975557356       -2.81470458510354
H           -4.00749321731345       -4.72006132715869       -2.35440970482304
H            5.53080337875701       -4.18278857664184       -2.42895189867002
H            6.90272266900761       -6.22520621895002       -2.36143816739903
H            7.05665167619819       -7.54320018198068       -0.28096959258060
H            5.85144187110042       -6.79219679413228        1.73805567229786
H            4.50597935119790       -4.73448351280026        1.67934979532268
H            1.50209728290604       -2.55763397086661        2.31488171443844
H            0.26835634264419       -4.26518184824547        3.57996848517045
H            0.14419903384518       -6.58189102801509        2.73830671748921
H            1.23852935025672       -7.17372307971928        0.60840233956222
H            2.42123589030869       -5.45102149952490       -0.69279786803128
H            6.08960041514825        6.60175913013674        0.19591216168179
H            5.62210870510231        5.07432881186625        0.93329992740466
H            5.56223051903784        5.26973680482967       -0.82596143360652
H            4.47620883351156        8.07319488578295       -0.88410316009032
H            2.74667016965323        7.74196466625495       -0.85378675924206
H            3.80732714754830        6.77042441787190       -1.87123175992471
H            3.95192415826681        6.31067915645033        2.40185188648257
H            4.58483732730479        7.78931535862816        1.67292338914315
H            2.85040406521543        7.48592784021755        1.68819433404002
