132
energy: -196.930253712327 gnorm: 0.006561703229 xtb: 6.7.1 (edcfbbe)
C           -1.26306253725980        0.35879292118556       -0.10043900956077
C           -1.18257711583140       -1.03776332319736       -0.26602626619587
C            0.04695863217339       -1.68857605436920       -0.33060348291595
C            1.23878935696493       -0.96714820670503       -0.32963509489431
C            1.22553306414108        0.44962221419469       -0.31729240269099
C           -0.04119602746032        1.05065024573234       -0.17881817984125
N           -0.09354064992290        2.40388909186827       -0.07881067299363
N           -2.38612947591002       -1.72143723361450       -0.26684946927429
N            2.48287658365761       -1.57727012430121       -0.31010881791337
C            0.98473043261324        3.24156348499769       -0.05909280519029
C            0.54383121923690        4.57707932167157        0.05861684651007
C           -0.90667603053067        4.51860163810012        0.05486957471532
C           -1.23820484450013        3.14752605899220        0.00982980961012
C            2.31142764351008        2.83082951192019       -0.12253707178150
C            3.23302142758082        3.86506354555347        0.10443664545288
C            2.85670338695846        5.19425100947144        0.26300997294824
C            1.50457947404887        5.55821487372112        0.19739614549454
C           -1.94434584748514        5.42866595124926        0.08177756466080
C           -3.26789948693265        4.97000630442982        0.04086650009497
C           -3.53596889695704        3.60545427963436        0.05582252936200
C           -2.52735444773157        2.63122336851251        0.09500773131542
C           -4.38548176223657        6.00588440365377        0.01937461518350
C           -4.19465268635438        6.93300660732160       -1.18954025091997
C           -5.78038254223796        5.38198521153527       -0.08654552261445
C           -4.32500025184771        6.81646586147231        1.32215057751766
C            2.83538548315801       -2.90740070536865       -0.08783407737805
C            4.19978869748597       -3.03560986535565       -0.07201498307143
C            4.75238856160080       -1.74189236386493       -0.35898186467023
C            3.64659333110903       -0.85662814249745       -0.48081014029291
C           -3.46282112852937       -1.20017001007147        0.40911649279205
C           -4.37901918515938       -2.25675861652463        0.65454006910985
C           -3.83512620481505       -3.43013950610792        0.02567606240565
C           -2.65718515844905       -3.05880542605155       -0.58862170678063
C            6.02783576523774       -1.27419667477708       -0.55375666631214
C            6.20818983610736        0.06247687694762       -0.95567062878513
C            5.08689666362241        0.93815293719138       -1.07755352533218
C            3.77472292906037        0.50606053080235       -0.71483280024731
C            7.49590551462960        0.54784314895259       -1.27655719459288
C            7.67697387135700        1.81166395861303       -1.75940053920337
C            6.56458927269299        2.63978458579343       -1.97461445077221
C            5.30887790900473        2.21102275942258       -1.64326087131439
C           -3.66420768551965        0.12249925585030        0.77811887814703
C           -4.83343587032478        0.35711647087663        1.56306927403329
C           -5.76440893230467       -0.69640727253897        1.82783062853341
C           -5.52965681246785       -2.00217503351683        1.35845082525479
C           -5.08868004486461        1.61403511274256        2.14966987950020
C           -6.21789847256703        1.85018194323399        2.88377797823143
C           -7.16088361460375        0.83080206153535        3.08691767522668
C           -6.92627286875598       -0.41475808288914        2.58164983477787
C           -4.47890719484108       -4.73499638217191        0.16626226519481
C           -2.01724787739292       -3.71240769559889       -1.72362756686912
C           -2.17652989126175       -5.07796355406837       -1.97204575621317
C           -1.71580377622760       -5.64772850704746       -3.14361787009430
C           -1.05983871434603       -4.87862437498060       -4.09034945130331
C           -0.89287488082972       -3.52258647439356       -3.85966473357178
C           -1.37739331825420       -2.94308581834125       -2.70425918471074
C           -3.80532002627353       -5.77686305956565        0.80473866077714
C           -4.44070147354195       -6.98225993526278        1.03569230927155
C           -5.75811806484575       -7.16067310924702        0.64411358656498
C           -6.43832089400302       -6.12804619749996        0.01902784971187
C           -5.80474565023197       -4.92162293598749       -0.21660999285314
C            4.97511633787428       -4.23584360861854        0.22830097053147
C            4.70714970655408       -5.46059608201274       -0.37680632178560
C            5.46619666157347       -6.57411981985008       -0.06726282469770
C            6.50039632012358       -6.48207330989015        0.84868359569855
C            6.77298698748562       -5.26853414470742        1.45853840808243
C            6.01752652396768       -4.15353819761227        1.15024631764956
C            1.94518117623376       -4.05471540355963        0.15067057842973
C            1.87240643670540       -4.60109993218566        1.43005106179076
C            1.16634147781461       -5.76868034490457        1.65572741951288
C            0.53995392900341       -6.41481628987400        0.60216263418183
C            0.62003243686102       -5.88626544540231       -0.67718457668175
C            1.31371747039625       -4.71237959016503       -0.90433081138605
B            2.49808632418074        1.31562751353954       -0.41693558091405
B           -2.57653973188231        1.08763244944090        0.24825278254834
C            3.88228354294461        6.29173264771647        0.52278237785869
C            5.32093394271354        5.76876667897674        0.58194018405978
C            3.80666987220577        7.33343210152158       -0.60257180059375
C            3.56394748808660        6.94981977050272        1.87330883555283
H            0.06172173697314       -2.76348984972986       -0.36073453505637
H            4.27254752539694        3.59800260960869        0.18099880961866
H            1.20991008162392        6.59217839156381        0.28773991450603
H           -1.73139978102747        6.48573290805382        0.11696875755307
H           -4.55631809236577        3.26317618279670        0.02025444764049
H           -4.99462247244925        7.66985681247266       -1.22859289960313
H           -3.24833268075954        7.46438206086844       -1.14360709930260
H           -4.21493820206547        6.35334874532164       -2.11046720124402
H           -6.52642310334908        6.17375061543101       -0.12041075927595
H           -6.00009265332963        4.75239825822586        0.77261314021865
H           -5.87743473385880        4.79087027382938       -0.99434282163525
H           -4.45369090693695        6.15567170583368        2.17737401652699
H           -3.37184443554469        7.32702406821648        1.42874196982905
H           -5.11618142617578        7.56340168921082        1.34042541306941
H            6.88495880261278       -1.92296571733968       -0.44694811546385
H            8.34027867025556       -0.11633194957273       -1.15337881618936
H            8.66568969870706        2.16963317019868       -2.00683222656988
H            6.70960210644806        3.61490528940379       -2.41747173165152
H            4.45265652806068        2.83164050516907       -1.85483583286826
H           -6.24521198617511       -2.78451283640175        1.56698397179200
H           -4.35091099094001        2.39108486403252        2.03303342362542
H           -6.38820378241650        2.82242315962576        3.32344319150640
H           -8.05409286200168        1.03323292267375        3.65975085182423
H           -7.62721741170697       -1.21845717992844        2.76095615421336
H           -2.67309897631298       -5.70119547124677       -1.24806629905640
H           -1.86956039950935       -6.70374001900033       -3.31845571902850
H           -0.69441461959341       -5.32706292884252       -5.00210715819773
H           -0.39612619664309       -2.90652877336540       -4.59599127686950
H           -1.27693764168558       -1.87552685241107       -2.57944252687420
H           -2.78518345277966       -5.62530569369309        1.13269223488709
H           -3.91189714210525       -7.78358929509193        1.53187680726508
H           -6.25490425932770       -8.10104488385767        0.83238033283070
H           -7.46760045574721       -6.26481518343254       -0.28140560195420
H           -6.32925998015016       -4.11685411055551       -0.71078604037793
H            3.90913912289874       -5.53352404351391       -1.10008404390718
H            5.25352857119523       -7.51916612191789       -0.54561861182268
H            7.09381763227692       -7.35302279678373        1.08677507138729
H            7.57553077515698       -5.19490195460672        2.17829736901450
H            6.21596161677775       -3.21014401307905        1.63792470175447
H            2.38034865551881       -4.10854580726655        2.24698129901093
H            1.11877461086611       -6.18524215735056        2.65278295328860
H            0.00056341303081       -7.33496058589761        0.77278122896868
H            0.15300796086601       -6.39749655854648       -1.50497908097287
H            1.37371988825927       -4.30696737370477       -1.90635717714248
H            5.99770689149692        6.60029963185710        0.77073543587959
H            5.44561711352457        5.04747795752128        1.38642596901015
H            5.61235238838580        5.30517039370964       -0.35755148485212
H            4.53155643324184        8.12670086046603       -0.42981643341738
H            2.82044535053935        7.78443909919252       -0.66613470718899
H            4.02913501345300        6.86544495362609       -1.55954084379100
H            3.58674559900596        6.20334975751159        2.66484108314856
H            4.29933190129327        7.71826245766379        2.10247336871227
H            2.58023494190134        7.41106295885344        1.87040614614408
