132
energy: -196.940035228252 gnorm: 0.005530974264 xtb: 6.7.1 (edcfbbe)
C           -1.24659099337208        0.35117602891258        0.14022273109638
C           -1.17619111669528       -1.04398200913446       -0.07211104127255
C            0.05039326895801       -1.68503422221838       -0.20795972586653
C            1.23652434896734       -0.95710701990489       -0.20485840441978
C            1.23022018984116        0.45447819545952       -0.18608376667048
C           -0.02831258264257        1.04622836811926        0.02444756222883
N           -0.06759169878726        2.39838916430277        0.13533938783781
N           -2.37840576171570       -1.73029182729922       -0.08791879674500
N            2.47632228884972       -1.56446713961603       -0.25075970831268
C            1.01704123776789        3.22978232065951        0.08443749056970
C            0.59189074809143        4.56552952365066        0.24641537037488
C           -0.85579060862422        4.51323646125010        0.35731369151171
C           -1.19833860770742        3.14523049183511        0.31214803861532
C            2.33421505161856        2.82340982958279       -0.10922016568056
C            3.26956244782726        3.86408627149018        0.00806622883861
C            2.90985680794513        5.19458665752059        0.19685363314362
C            1.55726874043949        5.55098513557261        0.28572736369974
C           -1.88024879294085        5.43133861148395        0.46720567472817
C           -3.20755132584433        4.98190096366522        0.50475056047147
C           -3.48385929462742        3.61865026251350        0.49355118172377
C           -2.48549629074901        2.63312205042514        0.44655010645365
C           -4.31572730673405        6.02538574339441        0.57752110790129
C           -4.22154182829289        6.94617730058697       -0.64764322468644
C           -5.71797655195740        5.40984953078883        0.59774546930656
C           -4.14084073664492        6.84720575956123        1.86278601103308
C            2.82442825048092       -2.90268262264330       -0.06120877468160
C            4.12743275777406       -3.09281208806630       -0.43543018105754
C            4.64199599969210       -1.81971418545762       -0.85632358928701
C            3.58235949323530       -0.88440793857868       -0.69880903967870
C           -3.49767783325303       -1.19321550898808        0.50691983566181
C           -4.49086109513363       -2.20774942909595        0.58711477682930
C           -3.93561260778070       -3.36966548951856       -0.04570757601443
C           -2.66499285188679       -3.04612817175483       -0.44969167936921
C            5.86286878074645       -1.38857276134767       -1.31159834242088
C            6.00533399060605       -0.03937237779802       -1.69027928582251
C            4.92060973378850        0.88033793056883       -1.54654813086516
C            3.69395694400296        0.47856811660775       -0.93510648475817
C            7.22053945979777        0.41849219034087       -2.24768805870413
C            7.35289237812869        1.69711659777016       -2.70773547200796
C            6.25843027399718        2.57256310208787       -2.65419534590580
C            5.07917582827690        2.17207590768474       -2.08808205319796
C           -3.67655263481898        0.11150668966147        0.94480708865445
C           -4.88958368904146        0.34506293396371        1.66021656477233
C           -5.90940038344115       -0.65391768866447        1.72478271559914
C           -5.70838288914774       -1.92483779284223        1.15425824101980
C           -5.09810003923108        1.54169798913332        2.37623173178807
C           -6.27201515055909        1.78822608160100        3.03292395996404
C           -7.30668155609599        0.84124690130992        3.01836579767107
C           -7.11857054644224       -0.35724406470873        2.39283471742294
C           -4.65488103313817       -4.62454634761491       -0.26932411324913
C           -1.79689244100158       -3.90708502251584       -1.24712623124544
C           -1.67762900698544       -5.25801930749537       -0.92938359266423
C           -0.92247810214727       -6.09825636323775       -1.72525045527355
C           -0.26578335500015       -5.60300786507170       -2.83854357820613
C           -0.38263505260333       -4.26151903236285       -3.16501904408538
C           -1.15069118772798       -3.42017756403672       -2.38474475651048
C           -5.18373674461390       -5.32756584377375        0.81104260546627
C           -5.87022989906295       -6.51014455219918        0.60512243164316
C           -6.05123218686237       -6.99569924436866       -0.67926185121281
C           -5.53781882926138       -6.29588488008184       -1.75859900602987
C           -4.83902382806884       -5.12023299509920       -1.55547389877345
C            4.92609405254897       -4.32391610471039       -0.36894457488740
C            4.85440776380231       -5.27507613342954       -1.37899989365216
C            5.62615967016422       -6.42144960992026       -1.31529067166571
C            6.48304974014013       -6.62516523693103       -0.24819246273778
C            6.57501940463581       -5.67139413298172        0.75080670137859
C            5.80396541960109       -4.52525401371637        0.68956868928020
C            1.96767226300095       -3.85348169774212        0.64350616675509
C            1.32476346363233       -3.46314231376129        1.82042015119663
C            0.53855870446139       -4.35900865052206        2.51889732344684
C            0.39946537447483       -5.66100244475515        2.06974654951510
C            1.04903864598588       -6.06158520956879        0.91311588043831
C            1.82402830868510       -5.16543924750722        0.20135154101427
B            2.49343886218291        1.30802348010963       -0.42207985111703
B           -2.54790785665505        1.08154790894939        0.52587397603429
C            3.95107742676451        6.30419708014306        0.28976987589793
C            5.38957100267372        5.78548715259828        0.20553902045402
C            3.73263875122191        7.28646848703762       -0.87067765402187
C            3.79271097327378        7.03771830550239        1.62958973639928
H            0.08462474969629       -2.75506756914095       -0.30632883007746
H            4.31244393825122        3.59978593964685       -0.03495889929498
H            1.26503120696101        6.58326272178267        0.40379448552003
H           -1.65353942023698        6.48599119534225        0.50396758498167
H           -4.50803094781172        3.28618323181997        0.50340594037599
H           -5.02048521126364        7.68440642756221       -0.62477160773359
H           -3.27293225086225        7.47494844209905       -0.67799031745761
H           -4.31581258552068        6.36376074690944       -1.56188955799951
H           -6.45901286200603        6.20500383358994        0.65102478985592
H           -5.85462496317396        4.76573284457181        1.46309178747184
H           -5.90765200194098        4.83505919753822       -0.30562865143293
H           -4.18893548444619        6.19586960455093        2.73332382727406
H           -3.18547443980981        7.36435379653146        1.87793175631718
H           -4.93087429955666        7.59101265749970        1.94390333043907
H            6.69755047648967       -2.06760987545516       -1.40958611649746
H            8.04369097491752       -0.27868474253748       -2.32220439946132
H            8.28615363290306        2.03148673500770       -3.13761218091401
H            6.35082436437722        3.56385496093037       -3.07516621504879
H            4.22764839127677        2.83354457991427       -2.08449335549242
H           -6.49566613975683       -2.66403232194115        1.19036951091585
H           -4.28907227664351        2.25209101522040        2.42775543073945
H           -6.40547580369028        2.71133629435967        3.57891676027776
H           -8.23588098928553        1.05500100532247        3.52582801769256
H           -7.89016767071702       -1.11435695630007        2.41292798036090
H           -2.17412015822387       -5.64223826450614       -0.05166531798964
H           -0.84696447066509       -7.14577894121592       -1.47421186541657
H            0.33075429790449       -6.26207102937692       -3.45204933856300
H            0.12031877933788       -3.87100667641561       -4.03784961894583
H           -1.25597316952690       -2.37874329103387       -2.65377149404153
H           -5.04078805834025       -4.94930381466140        1.81207842788982
H           -6.26565595455790       -7.05594103320370        1.44795230268677
H           -6.59272600981463       -7.91641118520646       -0.83979368800542
H           -5.68439148707506       -6.66510733838347       -2.76238644987262
H           -4.44033341224128       -4.57185994051021       -2.39746055718002
H            4.19698866031755       -5.10830394586230       -2.22098185628665
H            5.56063432319264       -7.15627138387248       -2.10366633875633
H            7.08207483646832       -7.52235752881681       -0.19692921134742
H            7.25153538715735       -5.82064394745919        1.57921731186505
H            5.87479747079856       -3.77844011632886        1.46658969798558
H            1.43995002801333       -2.45294287998528        2.18488039598921
H            0.03585141651659       -4.04058975006941        3.42110777847237
H           -0.21190736992685       -6.36091047401852        2.62082105074558
H            0.94833382821560       -7.07696231348164        0.56108664017756
H            2.31034490210146       -5.47492789722813       -0.71076795317680
H            6.07919140805610        6.62566471167373        0.26906962684989
H            5.61061681659179        5.10776285393170        1.02723756975015
H            5.57213121460316        5.27311609827162       -0.73603186513616
H            4.47680610942389        8.08007543771238       -0.83706691743796
H            2.74730234953397        7.74353599692927       -0.82565927139149
H            3.82350381593871        6.76737038477000       -1.82334219608186
H            3.92244948898473        6.34138259863135        2.45557285937702
H            4.54203907591735        7.82176698375978        1.71840216748000
H            2.81186094240813        7.49567354629747        1.72168983388841
