132
energy: -196.932742311970 gnorm: 0.004293710343 xtb: 6.7.1 (edcfbbe)
C           -1.26592454710195        0.35131979987880       -0.08628449239803
C           -1.18487207444561       -1.04750391540838       -0.24700371595801
C            0.04462911745812       -1.69495038196358       -0.32854346863968
C            1.23374909482195       -0.96914267688527       -0.33238503818872
C            1.21976128059545        0.44725123454216       -0.32027675699073
C           -0.04652055407880        1.04463808939100       -0.17356179632216
N           -0.09881133864082        2.39830094367180       -0.07054010357167
N           -2.38810054392096       -1.73314339988328       -0.23373485937756
N            2.47788844602151       -1.57735964842249       -0.32255968177430
C            0.98063158965536        3.23554375700519       -0.04780482805043
C            0.54179130347310        4.56938293784540        0.09338281172355
C           -0.90965207726551        4.51161190272873        0.10786691170603
C           -1.24194667864294        3.14128166942921        0.04360683452130
C            2.30717864397405        2.82770605532151       -0.13429578350321
C            3.22922282097833        3.86502150021730        0.07891908748297
C            2.85601986472295        5.19338640816832        0.25212470544141
C            1.50119826898385        5.55272140485973        0.22365573780987
C           -1.94342755085769        5.42380858359545        0.16634471071284
C           -3.27003313242781        4.96936363571800        0.13839924997669
C           -3.53742472415376        3.60482368503406        0.13601936957435
C           -2.53036418064848        2.62662680882717        0.14054856943546
C           -4.38499791557582        6.00818410952104        0.13017588468224
C           -4.21700839469516        6.91128170445817       -1.10068759925513
C           -5.78354001422316        5.38619445649101        0.06955975630925
C           -4.29870813270155        6.85222509828793        1.40985133152539
C            2.82799776483234       -2.91033872442538       -0.11786693627259
C            4.19022910901553       -3.05367396441377       -0.15573678508562
C            4.74088232460761       -1.75671932818343       -0.44710646522067
C            3.63757142040299       -0.86247125733904       -0.52844176865689
C           -3.46875445149549       -1.20717974863892        0.43149221622358
C           -4.40426846346702       -2.25281536882256        0.65354253139635
C           -3.85916121053658       -3.42918744372881        0.03300636602729
C           -2.66027559280399       -3.07175765999992       -0.54506333237361
C            6.01123043567497       -1.28538679487670       -0.66379441296119
C            6.18454808836979        0.05907816632600       -1.04767165458948
C            5.06259950798524        0.93554815753747       -1.14666919505776
C            3.75916788306288        0.50025270248080       -0.75989968733526
C            7.46859050904109        0.55072360649583       -1.37002516809294
C            7.64189154781456        1.82120544452514       -1.84053904908768
C            6.52600980428895        2.64506298362014       -2.04550366160453
C            5.27299281463208        2.21076849476044       -1.70829215422259
C           -3.65751918860579        0.11488644976032        0.80594622525227
C           -4.81598938311877        0.35704913231060        1.60255072795283
C           -5.77110951302815       -0.68010254371386        1.83759401413154
C           -5.56435165194976       -1.98046158312104        1.33700553565875
C           -5.02459904025839        1.60013684029142        2.23339398311172
C           -6.13940419754607        1.84212771838708        2.98782282947060
C           -7.11175291162738        0.84583486522181        3.15714059856394
C           -6.92211431774246       -0.38779395000203        2.60367297845599
C           -4.51827721802426       -4.73401002183249        0.10485960147392
C           -1.96058480741113       -3.75449277978798       -1.62659604253984
C           -1.98414850788183       -5.14133149660692       -1.77126851279959
C           -1.45338395184064       -5.74726028106769       -2.89535446127193
C           -0.85500779078658       -4.99155170750230       -3.88753315468021
C           -0.81523007201242       -3.61309723660788       -3.75348099120703
C           -1.37490141601914       -3.00047606383937       -2.65083890395306
C           -3.90265410333076       -5.78494795697881        0.78374673841282
C           -4.53328367170116       -7.00931056975531        0.90390966532929
C           -5.79363624849644       -7.19902073581955        0.36186494404806
C           -6.42307069436179       -6.15288650027759       -0.29198123724929
C           -5.79341889950534       -4.92738068841939       -0.41687671101050
C            4.97692337397644       -4.25214416012303        0.12712132001197
C            4.67786266998782       -5.49340817811739       -0.42904017384566
C            5.44482425046366       -6.60345721074500       -0.12795188677580
C            6.52782686178448       -6.49694944868946        0.72807238170307
C            6.83728454353800       -5.26704000737589        1.28368205952006
C            6.07044125915267       -4.15603483810424        0.98741990186682
C            1.89916412149197       -4.01373180621739        0.17515094331246
C            1.53257994553448       -4.29099410315266        1.48748169981605
C            0.77067355823090       -5.40920331478339        1.77841263952281
C            0.38860238606159       -6.27241611392204        0.76659679432400
C            0.74635043664225       -5.99960535092227       -0.54381577760893
C            1.48633865140251       -4.87121208166910       -0.84181459374857
B            2.49040490750218        1.31268563706508       -0.43632440296800
B           -2.57412212939021        1.08068672699901        0.27618443400983
C            3.88764818206653        6.29569567755117        0.46048712678764
C            5.32660026605930        5.77177008316435        0.49569798963542
C            3.77880802699542        7.30239260969080       -0.69419237376750
C            3.61209322389598        7.00344161417870        1.79489699667348
H            0.06507929469213       -2.76953436672588       -0.37057691980276
H            4.27115607191342        3.59951174767970        0.12923972165120
H            1.20112378071945        6.58404727994720        0.33014078359961
H           -1.72387310190983        6.47934623758910        0.21643902802156
H           -4.55878472951241        3.26261500891353        0.11607563174655
H           -5.01910315891353        7.64564298352162       -1.13982420635119
H           -3.27064341751632        7.44447172817356       -1.07835942801176
H           -4.25047353334888        6.31526344352008       -2.01053264656560
H           -6.52900270501636        6.17937297746037        0.05789185108167
H           -5.97597130872907        4.75870100976355        0.93673721655427
H           -5.91108082535922        4.79372467808253       -0.83339286623814
H           -4.41032940820361        6.21760582822222        2.28666061377834
H           -3.34617880632852        7.36972802947048        1.48355937527691
H           -5.09162527787908        7.59751599857795        1.42024482266046
H            6.87384042331482       -1.93141285002209       -0.58879729799738
H            8.31497666079967       -0.11213406974513       -1.25543120796111
H            8.62885981774021        2.18541478563976       -2.08575208513539
H            6.66200716245830        3.62355186085741       -2.48410095218934
H            4.41287212271745        2.82942243206774       -1.91004083635372
H           -6.30585315842902       -2.74630493261112        1.51426321264630
H           -4.26224676391787        2.35635477776812        2.13867220487338
H           -6.27124300027390        2.80124527483942        3.46834827251774
H           -7.99396000700593        1.05351515644701        3.74488539340366
H           -7.64700054502323       -1.17485368609012        2.75836782443020
H           -2.42925698920548       -5.75558920398166       -1.00728767668253
H           -1.51010179566514       -6.82225917965448       -2.99308321417089
H           -0.43421376742460       -5.46771040068072       -4.76083887508464
H           -0.36055198972968       -3.00691191808308       -4.52358049827894
H           -1.37687914431258       -1.92209630489296       -2.59851798794091
H           -2.92994755337756       -5.63015719972457        1.23233832270702
H           -4.04021372739320       -7.81678498538302        1.42647969680631
H           -6.28528216985110       -8.15590853588649        0.45490959756558
H           -7.41150302695300       -6.29291789082288       -0.70596034918165
H           -6.28606001798820       -4.11580576607021       -0.93290971392041
H            3.84703921139994       -5.59111958304639       -1.10977909127344
H            5.19619858720252       -7.55814264732062       -0.56887499228578
H            7.12662031781248       -7.36530845021049        0.96001461973585
H            7.67907057226312       -5.17323709458196        1.95520509511989
H            6.30549829127622       -3.20545087462682        1.44353950446473
H            1.85232115321045       -3.63031357512020        2.27953485190598
H            0.49410828066930       -5.61688542568194        2.80270591841439
H           -0.18344975710054       -7.15924516134677        0.99703389941970
H            0.46143021218686       -6.67325204697508       -1.33701913494905
H            1.74507721282000       -4.64721072365721       -1.86775061658290
H            6.00839344068827        6.60526741070644        0.65562079724784
H            5.46796934083958        5.06337526194237        1.30870834869301
H            5.59630320571734        5.29277151902737       -0.44238775004104
H            4.52502112401985        8.08612831730267       -0.58036577291051
H            2.79833025839737        7.76948287671664       -0.72405420782439
H            3.94658248863244        6.80148743506680       -1.64554883868949
H            3.67633976095438        6.29316972477068        2.61659308752697
H            4.34668988314299        7.78903678106481        1.96016025368741
H            2.62416399790626        7.45500665456290        1.81224663517247
