132
energy: -196.940828739192 gnorm: 0.002567538738 xtb: 6.7.1 (edcfbbe)
C           -1.26366580959372        0.35459876260507        0.14762295200130
C           -1.19256101866463       -1.04347892528020       -0.03820078460438
C            0.03261733152916       -1.69140236994834       -0.15815039342318
C            1.21979669423085       -0.96577201411492       -0.18669564230839
C            1.21170735068324        0.44691611718441       -0.19076842481444
C           -0.04480015963784        1.04504072422007        0.01748740444302
N           -0.08516653764400        2.39893002117249        0.10684099880783
N           -2.39642208703993       -1.72508117786430       -0.05040426599792
N            2.45836268601939       -1.57686586882645       -0.24566137047051
C            1.00028624023663        3.22842345458278        0.05146441312423
C            0.57863248112908        4.56538394595076        0.21149140584178
C           -0.86848039358525        4.51599595025258        0.32896912927976
C           -1.21412190652986        3.14852538595092        0.28681719973623
C            2.31586493685613        2.81661361214163       -0.13884164806489
C            3.25397158763384        3.85438592095919       -0.02181086564776
C            2.89826968695109        5.18631089178103        0.16272079109830
C            1.54694153447205        5.54817598075082        0.24781952298318
C           -1.88885566469235        5.43680547837008        0.45331807440370
C           -3.21736510921923        4.99203324863139        0.50002843350999
C           -3.49715238848531        3.62940665262539        0.48785243191397
C           -2.50171270358706        2.64083648011095        0.43356157820526
C           -4.32151606961263        6.03935769898474        0.58534128302402
C           -4.22972088298421        6.96887912119085       -0.63349147315109
C           -5.72618391941010        5.42927204275558        0.60752699369947
C           -4.13895273737057        6.85311065895259        1.87486617608534
C            2.81183856842745       -2.91534317439036       -0.06239126798317
C            4.11393787552919       -3.10200621411203       -0.44230512378119
C            4.62420761777671       -1.82847224771006       -0.86283902553309
C            3.56242281988165       -0.89608297311853       -0.70134620952435
C           -3.52071530850940       -1.18195619965468        0.52650459617212
C           -4.52173923271135       -2.19099710251363        0.58824918052645
C           -3.96308858640361       -3.35573303648352       -0.04294880458652
C           -2.68311898012893       -3.03482966616953       -0.42302338021293
C            5.84592370851681       -1.39720333541345       -1.31582910007702
C            5.98983809668818       -0.04736441322888       -1.69004057967066
C            4.90193188033067        0.86892549912402       -1.55119338293786
C            3.67383971443999        0.46589443021206       -0.94376187573924
C            7.20935840025806        0.41522532946368       -2.23375754708764
C            7.34572850431395        1.69855267879589       -2.67874497150329
C            6.24845270171577        2.57106543585990       -2.63238168816128
C            5.06219810209107        2.16271430596286       -2.08764504459597
C           -3.69560680499382        0.12660544027147        0.95419902951283
C           -4.91111375654690        0.36884797137766        1.66227538829786
C           -5.93768517133700       -0.62320976545713        1.71516499803577
C           -5.74491331847083       -1.89227672420160        1.13540193376895
C           -5.11321613007238        1.56329907719803        2.38317130312917
C           -6.28434015663139        1.81050446727336        3.04501482395559
C           -7.32366492800154        0.86892013904024        3.02476424824191
C           -7.14519279450002       -0.32370834034593        2.38477920681126
C           -4.67255437362825       -4.61053204233305       -0.27555836338148
C           -1.79167041818754       -3.87480514150409       -1.21863779698368
C           -1.60262804003951       -5.21415175537981       -0.88759715335954
C           -0.82927630230986       -6.02791949451090       -1.69382522439086
C           -0.22460135721718       -5.51563888964443       -2.82895377822681
C           -0.40423698283145       -4.18280680236856       -3.16307614679528
C           -1.18918737149456       -3.36818165108282       -2.37131522741207
C           -5.37816252524836       -5.21505606744864        0.76421940387284
C           -6.05643850584680       -6.40111709804730        0.55328444372386
C           -6.04162712943040       -6.99934305384293       -0.69638111282671
C           -5.34658580405950       -6.40288894853798       -1.73653165238377
C           -4.66783007236840       -5.21694206800384       -1.53008703224795
C            4.91414936984477       -4.33296238817853       -0.37751238126241
C            4.89520776925913       -5.24947965251220       -1.42305624935545
C            5.67118480168546       -6.39286630266144       -1.36402038220177
C            6.48023302274809       -6.62843747294335       -0.26518207624807
C            6.51516186124695       -5.71251640616266        0.77285822807545
C            5.73828442627377       -4.56961568267462        0.71680292980804
C            1.98375572803445       -3.89201299058999        0.64128360634285
C            1.36476086397040       -3.53979918485099        1.84216447819598
C            0.64008979951972       -4.47401619503318        2.55565917553887
C            0.53721491854386       -5.77648754802156        2.09513767797448
C            1.16095103986177       -6.13764616668199        0.91354870427090
C            1.87531370508912       -5.20326542447207        0.18703733032376
B            2.47315270326814        1.29868187608015       -0.43903077408882
B           -2.56484372783477        1.08996097649766        0.52637672400987
C            3.94520961056255        6.28914655597669        0.26605976570105
C            5.38058358612342        5.76232798154020        0.17914840026034
C            3.73650783892350        7.28548463807592       -0.88351781197129
C            3.78620116879286        7.00672619570975        1.61429363608593
H            0.06318444614148       -2.76405307604154       -0.22376496126782
H            4.29593824269370        3.58678312729532       -0.06017338787679
H            1.25836384866253        6.58172172477471        0.36358085391609
H           -1.65799061768219        6.49031783216884        0.49629054449706
H           -4.52210897215353        3.29969934770336        0.50578334262668
H           -5.02028835513178        7.71562403648591       -0.59631902154206
H           -3.27576989928654        7.48762854327488       -0.66934537039815
H           -4.33981044850357        6.39514476966037       -1.55146370181485
H           -6.46399384850932        6.22755253545395        0.66246663296768
H           -5.86414399738177        4.78518300211230        1.47275036479266
H           -5.91993076160882        4.85598960862461       -0.29602968327102
H           -4.17969160588904        6.19683387398492        2.74199312980595
H           -3.18505771264180        7.37313588200620        1.88667839724293
H           -4.93049937360471        7.59430950933950        1.96582740623563
H            6.67998327717847       -2.07751904619303       -1.41151846244914
H            8.03314625331801       -0.28131929540245       -2.30700137771769
H            8.28363041601554        2.03912509459740       -3.09290798833264
H            6.34460821663933        3.56660005505567       -3.04212206722214
H            4.20783154766040        2.82010453348953       -2.09510582758848
H           -6.54758500670397       -2.61511910961432        1.15097177335918
H           -4.30057249331677        2.26971740136556        2.43713437624084
H           -6.41176093251260        2.72937323382046        3.59959742661975
H           -8.24938672444477        1.08205657989841        3.53908722011911
H           -7.92254140579543       -1.07512360199310        2.39857996221029
H           -2.06277841515394       -5.60931030425975        0.00533848138675
H           -0.70028555428394       -7.06821884794893       -1.43534484797528
H            0.38109907837780       -6.15468048020465       -3.45449827518961
H            0.06105598836930       -3.77890141941366       -4.05059282790865
H           -1.34365764517438       -2.33359837935118       -2.64372973047135
H           -5.37753682289620       -4.75851135256523        1.74334896862261
H           -6.59835434783311       -6.86162689328055        1.36705650386711
H           -6.57150066587735       -7.92606362471748       -0.86095093588288
H           -5.33503377405931       -6.86293908214444       -2.71439797332830
H           -4.13776294947515       -4.74721201886670       -2.34631904305233
H            4.27367688702813       -5.05769321067829       -2.28713563455802
H            5.64712541770207       -7.10110120176829       -2.17976212508292
H            7.08561792149804       -7.52178133084144       -0.21975115385870
H            7.15162064000883       -5.88823579740590        1.62820749307105
H            5.76463782619273       -3.85256479518468        1.52493526205098
H            1.45722777303133       -2.52939787391207        2.21398408082699
H            0.16053632840493       -4.18751490940553        3.48042979492081
H           -0.02441612711382       -6.50693821511807        2.65892145074953
H            1.09069915861729       -7.15327762741685        0.55406458394042
H            2.34399594428999       -5.48640418979022       -0.74209655064328
H            6.07592842621202        6.59427086384575        0.27413443042871
H            5.59043762562184        5.05837555303826        0.98105550485853
H            5.56629786774605        5.27716559482159       -0.77610482636438
H            4.48561144162014        8.07347151054612       -0.83827788752554
H            2.75443517214058        7.74843778677864       -0.83705973424937
H            3.82773728043741        6.77717403375827       -1.84155630669068
H            3.90444824251381        6.29779910975217        2.43125408038945
H            4.54176575761711        7.78265552938237        1.71851427493753
H            2.80854186474294        7.47154183914184        1.70643139321493
